
 OpenBabel04042315453D

 16 15  0  0  0  0  0  0  0  0999 V2000
    0.9836   -0.0842   -0.1439 C   0  0  0  0  0  0  0  0  0  0  0  0
    0.6116    0.8142   -1.1875 O   0  0  0  0  0  0  0  0  0  0  0  0
   -0.7936    1.0294   -1.2253 C   0  0  0  0  0  0  0  0  0  0  0  0
    0.4982   -1.4104   -0.3552 O   0  0  0  0  0  0  0  0  0  0  0  0
    0.9210   -1.9999   -1.5772 C   0  0  0  0  0  0  0  0  0  0  0  0
    2.4994   -0.0503    0.0183 C   0  0  0  0  0  0  0  0  0  0  0  0
    0.5452    0.2674    0.7986 H   0  0  0  0  0  0  0  0  0  0  0  0
   -1.0152    1.6876   -2.0695 H   0  0  0  0  0  0  0  0  0  0  0  0
   -1.1319    1.5147   -0.3056 H   0  0  0  0  0  0  0  0  0  0  0  0
   -1.3322    0.0885   -1.3748 H   0  0  0  0  0  0  0  0  0  0  0  0
    0.4018   -2.9565   -1.6858 H   0  0  0  0  0  0  0  0  0  0  0  0
    1.9955   -2.2001   -1.5662 H   0  0  0  0  0  0  0  0  0  0  0  0
    0.6596   -1.3744   -2.4353 H   0  0  0  0  0  0  0  0  0  0  0  0
    3.0078   -0.2526   -0.9303 H   0  0  0  0  0  0  0  0  0  0  0  0
    2.8347   -0.7948    0.7473 H   0  0  0  0  0  0  0  0  0  0  0  0
    2.8281    0.9433    0.3404 H   0  0  0  0  0  0  0  0  0  0  0  0
  1  2  1  0  0  0  0
  1  4  1  0  0  0  0
  1  6  1  0  0  0  0
  1  7  1  0  0  0  0
  2  3  1  0  0  0  0
  3  8  1  0  0  0  0
  3  9  1  0  0  0  0
  3 10  1  0  0  0  0
  4  5  1  0  0  0  0
  5 11  1  0  0  0  0
  5 12  1  0  0  0  0
  5 13  1  0  0  0  0
  6 14  1  0  0  0  0
  6 15  1  0  0  0  0
  6 16  1  0  0  0  0
M  END
$$$$

 OpenBabel04042315453D

 23 23  0  0  0  0  0  0  0  0999 V2000
    1.1220   -0.0398   -0.1585 C   0  0  0  0  0  0  0  0  0  0  0  0
    0.7129    0.4614   -1.4319 O   0  0  0  0  0  0  0  0  0  0  0  0
   -0.6880    0.6913   -1.4933 C   0  0  0  0  0  0  0  0  0  0  0  0
    0.6376   -1.3664    0.0764 O   0  0  0  0  0  0  0  0  0  0  0  0
    1.0052   -2.2929   -0.9403 C   0  0  0  0  0  0  0  0  0  0  0  0
    2.6378    0.0134    0.0080 C   0  0  0  0  0  0  0  0  0  0  0  0
    3.4851    0.4425   -1.0287 C   0  0  0  0  0  0  0  0  0  0  0  0
    4.8731    0.4373   -0.8638 C   0  0  0  0  0  0  0  0  0  0  0  0
    5.4236    0.0045    0.3356 C   0  0  0  0  0  0  0  0  0  0  0  0
    6.7588   -0.0065    0.4634 F   0  0  0  0  0  0  0  0  0  0  0  0
    4.6036   -0.4164    1.3800 C   0  0  0  0  0  0  0  0  0  0  0  0
    5.2839   -0.9611    2.8651 Cl  0  0  0  0  0  0  0  0  0  0  0  0
    3.2163   -0.4104    1.2197 C   0  0  0  0  0  0  0  0  0  0  0  0
    0.6977    0.6096    0.6192 H   0  0  0  0  0  0  0  0  0  0  0  0
   -0.9567    0.8634   -2.5394 H   0  0  0  0  0  0  0  0  0  0  0  0
   -0.9505    1.5812   -0.9144 H   0  0  0  0  0  0  0  0  0  0  0  0
   -1.2559   -0.1720   -1.1333 H   0  0  0  0  0  0  0  0  0  0  0  0
    0.5490   -3.2563   -0.7002 H   0  0  0  0  0  0  0  0  0  0  0  0
    2.0896   -2.4315   -0.9792 H   0  0  0  0  0  0  0  0  0  0  0  0
    0.6320   -1.9777   -1.9196 H   0  0  0  0  0  0  0  0  0  0  0  0
    3.0683    0.7762   -1.9770 H   0  0  0  0  0  0  0  0  0  0  0  0
    5.5237    0.7582   -1.6710 H   0  0  0  0  0  0  0  0  0  0  0  0
    2.5769   -0.7552    2.0314 H   0  0  0  0  0  0  0  0  0  0  0  0
  1  2  1  0  0  0  0
  1  4  1  0  0  0  0
  1  6  1  0  0  0  0
  1 14  1  0  0  0  0
  2  3  1  0  0  0  0
  3 15  1  0  0  0  0
  3 16  1  0  0  0  0
  3 17  1  0  0  0  0
  4  5  1  0  0  0  0
  5 18  1  0  0  0  0
  5 19  1  0  0  0  0
  5 20  1  0  0  0  0
  6  7  1  0  0  0  0
  6 13  2  0  0  0  0
  7  8  2  0  0  0  0
  7 21  1  0  0  0  0
  8  9  1  0  0  0  0
  8 22  1  0  0  0  0
  9 10  1  0  0  0  0
  9 11  2  0  0  0  0
 11 12  1  0  0  0  0
 11 13  1  0  0  0  0
 13 23  1  0  0  0  0
M  END
$$$$

 OpenBabel04042315453D

 18 17  0  0  0  0  0  0  0  0999 V2000
    1.5150   -0.6431   -0.8679 F   0  0  0  0  0  0  0  0  0  0  0  0
    2.3729    0.0072   -0.0430 C   0  0  0  0  0  0  0  0  0  0  0  0
    1.6950    0.2547    1.1054 F   0  0  0  0  0  0  0  0  0  0  0  0
    3.3593   -0.8713    0.2666 F   0  0  0  0  0  0  0  0  0  0  0  0
    2.9107    1.2963   -0.6773 C   0  0  0  0  0  0  0  0  0  0  0  0
    2.4738    1.4088   -1.9696 F   0  0  0  0  0  0  0  0  0  0  0  0
    2.4172    2.3923   -0.0299 F   0  0  0  0  0  0  0  0  0  0  0  0
    4.4259    1.3692   -0.6872 C   0  0  0  0  0  0  0  0  0  0  0  0
    4.9052    2.6649   -1.3194 C   0  0  0  0  0  0  0  0  0  0  0  0
    6.3324    2.6532   -1.3161 O   0  0  0  0  0  0  0  0  0  0  0  0
    6.8663    3.8387   -1.8935 C   0  0  0  0  0  0  0  0  0  0  0  0
    4.8475    0.5230   -1.2474 H   0  0  0  0  0  0  0  0  0  0  0  0
    4.8250    1.2978    0.3320 H   0  0  0  0  0  0  0  0  0  0  0  0
    4.5464    3.5293   -0.7491 H   0  0  0  0  0  0  0  0  0  0  0  0
    4.5459    2.7443   -2.3521 H   0  0  0  0  0  0  0  0  0  0  0  0
    7.9599    3.7734   -1.8648 H   0  0  0  0  0  0  0  0  0  0  0  0
    6.5528    4.7166   -1.3207 H   0  0  0  0  0  0  0  0  0  0  0  0
    6.5485    3.9336   -2.9363 H   0  0  0  0  0  0  0  0  0  0  0  0
  1  2  1  0  0  0  0
  2  3  1  0  0  0  0
  2  4  1  0  0  0  0
  2  5  1  0  0  0  0
  5  6  1  0  0  0  0
  5  7  1  0  0  0  0
  5  8  1  0  0  0  0
  8  9  1  0  0  0  0
  8 12  1  0  0  0  0
  8 13  1  0  0  0  0
  9 10  1  0  0  0  0
  9 14  1  0  0  0  0
  9 15  1  0  0  0  0
 10 11  1  0  0  0  0
 11 16  1  0  0  0  0
 11 17  1  0  0  0  0
 11 18  1  0  0  0  0
M  END
$$$$

 OpenBabel04042315453D

 24 23  0  0  0  0  0  0  0  0999 V2000
    0.8791   -0.1541    0.0939 Br  0  0  0  0  0  0  0  0  0  0  0  0
    2.8136    0.0628    0.1946 C   0  0  0  0  0  0  0  0  0  0  0  0
    3.2547   -0.2971    1.4228 F   0  0  0  0  0  0  0  0  0  0  0  0
    3.3617   -0.8170   -0.6867 F   0  0  0  0  0  0  0  0  0  0  0  0
    3.2736    1.4173   -0.1302 N   0  0  0  0  0  0  0  0  0  0  0  0
    2.7991    2.3764    0.8708 C   0  0  0  0  0  0  0  0  0  0  0  0
    4.7554    1.3905   -0.1855 C   0  0  0  0  0  0  0  0  0  0  0  0
    5.4252    2.7384   -0.5665 C   0  0  0  0  0  0  0  0  0  0  0  0
    6.9074    2.7120   -0.6203 N   0  0  0  0  0  0  0  0  0  0  0  0
    7.3780    1.7729   -1.6402 C   0  0  0  0  0  0  0  0  0  0  0  0
    7.3702    4.0737   -0.9118 C   0  0  0  0  0  0  0  0  0  0  0  0
    6.9547    4.4516   -2.1478 F   0  0  0  0  0  0  0  0  0  0  0  0
    6.8035    4.9412   -0.0335 F   0  0  0  0  0  0  0  0  0  0  0  0
    9.3024    4.2695   -0.7732 Br  0  0  0  0  0  0  0  0  0  0  0  0
    1.7096    2.3905    0.9436 H   0  0  0  0  0  0  0  0  0  0  0  0
    3.0631    3.3999    0.5795 H   0  0  0  0  0  0  0  0  0  0  0  0
    3.2109    2.1799    1.8656 H   0  0  0  0  0  0  0  0  0  0  0  0
    5.0387    0.6561   -0.9466 H   0  0  0  0  0  0  0  0  0  0  0  0
    5.1733    1.0479    0.7710 H   0  0  0  0  0  0  0  0  0  0  0  0
    5.1418    3.4695    0.1982 H   0  0  0  0  0  0  0  0  0  0  0  0
    5.0086    3.0849   -1.5211 H   0  0  0  0  0  0  0  0  0  0  0  0
    7.1134    0.7449   -1.3742 H   0  0  0  0  0  0  0  0  0  0  0  0
    8.4696    1.7578   -1.7159 H   0  0  0  0  0  0  0  0  0  0  0  0
    6.9683    1.9911   -2.6326 H   0  0  0  0  0  0  0  0  0  0  0  0
  1  2  1  0  0  0  0
  2  3  1  0  0  0  0
  2  4  1  0  0  0  0
  2  5  1  0  0  0  0
  5  6  1  0  0  0  0
  5  7  1  0  0  0  0
  6 15  1  0  0  0  0
  6 16  1  0  0  0  0
  6 17  1  0  0  0  0
  7  8  1  0  0  0  0
  7 18  1  0  0  0  0
  7 19  1  0  0  0  0
  8  9  1  0  0  0  0
  8 20  1  0  0  0  0
  8 21  1  0  0  0  0
  9 10  1  0  0  0  0
  9 11  1  0  0  0  0
 10 22  1  0  0  0  0
 10 23  1  0  0  0  0
 10 24  1  0  0  0  0
 11 12  1  0  0  0  0
 11 13  1  0  0  0  0
 11 14  1  0  0  0  0
M  END
$$$$

 OpenBabel04042315453D

 19 18  0  0  0  0  0  0  0  0999 V2000
    1.1418   -0.0890    0.0495 C   0  0  0  0  0  0  0  0  0  0  0  0
    2.4796   -0.1151    0.0361 C   0  0  0  0  0  0  0  0  0  0  0  0
    3.2360   -1.3299   -0.1445 C   0  0  0  0  0  0  0  0  0  0  0  0
    4.5725   -1.3710   -0.1462 C   0  0  0  0  0  0  0  0  0  0  0  0
    5.2516   -2.5589   -0.2611 O   0  0  0  0  0  0  0  0  0  0  0  0
    6.6240   -2.5454   -0.2788 C   0  0  0  0  0  0  0  0  0  0  0  0
    7.3326   -3.6178    0.0924 C   0  0  0  0  0  0  0  0  0  0  0  0
    8.7752   -3.6600    0.1075 C   0  0  0  0  0  0  0  0  0  0  0  0
    9.4792   -4.7178    0.5218 C   0  0  0  0  0  0  0  0  0  0  0  0
    8.8613   -5.8348    0.9594 F   0  0  0  0  0  0  0  0  0  0  0  0
   10.8281   -4.6617    0.5083 F   0  0  0  0  0  0  0  0  0  0  0  0
    0.6096    0.8453    0.1985 H   0  0  0  0  0  0  0  0  0  0  0  0
    0.5442   -0.9857   -0.0829 H   0  0  0  0  0  0  0  0  0  0  0  0
    3.0284    0.8133    0.1793 H   0  0  0  0  0  0  0  0  0  0  0  0
    2.6839   -2.2595   -0.2671 H   0  0  0  0  0  0  0  0  0  0  0  0
    5.1965   -0.4973   -0.0179 H   0  0  0  0  0  0  0  0  0  0  0  0
    7.0622   -1.6162   -0.6189 H   0  0  0  0  0  0  0  0  0  0  0  0
    6.7975   -4.5059    0.4220 H   0  0  0  0  0  0  0  0  0  0  0  0
    9.3203   -2.7834   -0.2286 H   0  0  0  0  0  0  0  0  0  0  0  0
  1  2  2  0  0  0  0
  1 12  1  0  0  0  0
  1 13  1  0  0  0  0
  2  3  1  0  0  0  0
  2 14  1  0  0  0  0
  3  4  2  3  0  0  0
  3 15  1  0  0  0  0
  4  5  1  0  0  0  0
  4 16  1  0  0  0  0
  5  6  1  0  0  0  0
  6  7  2  3  0  0  0
  6 17  1  0  0  0  0
  7  8  1  0  0  0  0
  7 18  1  0  0  0  0
  8  9  2  0  0  0  0
  8 19  1  0  0  0  0
  9 10  1  0  0  0  0
  9 11  1  0  0  0  0
M  END
$$$$

 OpenBabel04042315453D

  4  3  0  0  0  0  0  0  0  0999 V2000
    0.9876   -0.1361   -0.0001 P   0  0  0  0  0  0  0  0  0  0  0  0
    2.3687    0.1631    0.0735 H   0  0  0  0  0  0  0  0  0  0  0  0
    0.6725    0.9933   -0.7921 H   0  0  0  0  0  0  0  0  0  0  0  0
    0.6725    0.4976    1.2252 H   0  0  0  0  0  0  0  0  0  0  0  0
  1  2  1  0  0  0  0
  1  3  1  0  0  0  0
  1  4  1  0  0  0  0
M  END
$$$$

 OpenBabel04042315453D

 14 14  0  0  0  0  0  0  0  0999 V2000
    1.1467   -0.7460    0.0116 C   0  0  0  0  0  0  0  0  0  0  0  0
    1.2280    0.6042    0.0093 N   0  0  0  0  0  0  0  0  0  0  0  0
    0.0557    1.2573   -0.0029 C   0  0  0  0  0  0  0  0  0  0  0  0
   -1.1601    0.6922   -0.0133 N   0  0  0  0  0  0  0  0  0  0  0  0
   -1.1722   -0.6593   -0.0100 C   0  0  0  0  0  0  0  0  0  0  0  0
   -0.0400   -1.4491    0.0035 C   0  0  0  0  0  0  0  0  0  0  0  0
   -0.2147   -2.7973    0.0073 O   0  0  0  0  0  0  0  0  0  0  0  0
    0.9702   -3.5864    0.0217 C   0  0  0  0  0  0  0  0  0  0  0  0
    2.1135   -1.2376    0.0211 H   0  0  0  0  0  0  0  0  0  0  0  0
    0.0957    2.3408   -0.0040 H   0  0  0  0  0  0  0  0  0  0  0  0
   -2.1611   -1.1092   -0.0186 H   0  0  0  0  0  0  0  0  0  0  0  0
    0.6724   -4.6392    0.0353 H   0  0  0  0  0  0  0  0  0  0  0  0
    1.5610   -3.3944    0.9236 H   0  0  0  0  0  0  0  0  0  0  0  0
    1.5651   -3.4178   -0.8822 H   0  0  0  0  0  0  0  0  0  0  0  0
  1  2  1  0  0  0  0
  1  6  2  0  0  0  0
  1  9  1  0  0  0  0
  2  3  2  0  0  0  0
  3  4  1  0  0  0  0
  3 10  1  0  0  0  0
  4  5  2  0  0  0  0
  5  6  1  0  0  0  0
  5 11  1  0  0  0  0
  6  7  1  0  0  0  0
  7  8  1  0  0  0  0
  8 12  1  0  0  0  0
  8 13  1  0  0  0  0
  8 14  1  0  0  0  0
M  END
$$$$

 OpenBabel04042315453D

 17 17  0  0  0  0  0  0  0  0999 V2000
    1.0311    0.0782    0.0571 C   0  0  0  0  0  0  0  0  0  0  0  0
    2.4928    0.0604   -0.0060 N   0  0  0  0  0  0  0  0  0  0  0  0
    3.0024    0.7160    0.9265 N   0  0  0  0  0  0  0  0  0  0  0  0
    4.4103    0.7607    0.8507 C   0  0  0  0  0  0  0  0  0  0  0  0
    5.1216    0.7956   -0.3592 C   0  0  0  0  0  0  0  0  0  0  0  0
    6.5155    0.8988   -0.3707 C   0  0  0  0  0  0  0  0  0  0  0  0
    7.2165    0.9789    0.8298 C   0  0  0  0  0  0  0  0  0  0  0  0
    6.5280    0.9487    2.0402 C   0  0  0  0  0  0  0  0  0  0  0  0
    5.1341    0.8429    2.0471 C   0  0  0  0  0  0  0  0  0  0  0  0
    0.6270   -0.5436   -0.7467 H   0  0  0  0  0  0  0  0  0  0  0  0
    0.6482    1.0958   -0.0754 H   0  0  0  0  0  0  0  0  0  0  0  0
    0.6712   -0.3204    1.0113 H   0  0  0  0  0  0  0  0  0  0  0  0
    4.5860    0.7499   -1.3041 H   0  0  0  0  0  0  0  0  0  0  0  0
    7.0480    0.9262   -1.3175 H   0  0  0  0  0  0  0  0  0  0  0  0
    8.3006    1.0689    0.8215 H   0  0  0  0  0  0  0  0  0  0  0  0
    7.0719    1.0158    2.9787 H   0  0  0  0  0  0  0  0  0  0  0  0
    4.6026    0.8292    2.9954 H   0  0  0  0  0  0  0  0  0  0  0  0
  1  2  1  0  0  0  0
  1 10  1  0  0  0  0
  1 11  1  0  0  0  0
  1 12  1  0  0  0  0
  2  3  2  3  0  0  0
  3  4  1  0  0  0  0
  4  5  1  0  0  0  0
  4  9  2  0  0  0  0
  5  6  2  0  0  0  0
  5 13  1  0  0  0  0
  6  7  1  0  0  0  0
  6 14  1  0  0  0  0
  7  8  2  0  0  0  0
  7 15  1  0  0  0  0
  8  9  1  0  0  0  0
  8 16  1  0  0  0  0
  9 17  1  0  0  0  0
M  END
$$$$

 OpenBabel04042315453D

  5  4  0  0  0  0  0  0  0  0999 V2000
    1.0592    0.0718   -0.0367 C   0  0  0  0  0  0  0  0  0  0  0  0
    2.1514    0.0718   -0.0367 H   0  0  0  0  0  0  0  0  0  0  0  0
    0.6951   -0.2106   -1.0270 H   0  0  0  0  0  0  0  0  0  0  0  0
    0.6951    1.0705    0.2139 H   0  0  0  0  0  0  0  0  0  0  0  0
    0.6951   -0.6447    0.7029 H   0  0  0  0  0  0  0  0  0  0  0  0
  1  2  1  0  0  0  0
  1  3  1  0  0  0  0
  1  4  1  0  0  0  0
  1  5  1  0  0  0  0
M  END
$$$$
