M0001
  Spartan 11232112103D

 50 55  0  0  0  0  0  0  0  0999 V2000
    0.5433   -0.7906    0.7101 C   0  0  0  0  0  0  0  0  0  0  0  0
   -0.1046   -0.5082   -0.7008 C   0  0  0  0  0  0  0  0  0  0  0  0
    0.4748   -1.3967   -1.8094 C   0  0  0  0  0  0  0  0  0  0  0  0
   -0.0324   -2.8129   -1.6032 C   0  0  0  0  0  0  0  0  0  0  0  0
    0.4340   -3.5025   -0.2819 C   0  0  0  0  0  0  0  0  0  0  0  0
   -0.4819   -3.2082    0.8928 C   0  0  0  0  0  0  0  0  0  0  0  0
   -0.2025   -1.8421    1.5479 C   0  0  0  0  0  0  0  0  0  0  0  0
    1.5662   -1.1624    0.5585 H   0  0  0  0  0  0  0  0  0  0  0  0
   -1.1890   -0.6808   -0.6364 H   0  0  0  0  0  0  0  0  0  0  0  0
    0.1519    0.9844   -0.9309 C   0  0  0  0  0  0  0  0  0  0  0  0
    0.7088    0.6055    1.3798 C   0  0  0  0  0  0  0  0  0  0  0  0
   -0.1324    1.4925    0.4953 C   0  0  0  0  0  0  0  0  0  0  0  0
    0.0778    2.9925    0.7222 C   0  0  0  0  0  0  0  0  0  0  0  0
    0.3058    0.8633    2.8303 C   0  0  0  0  0  0  0  0  0  0  0  0
   -0.3158    3.2984    2.1716 C   0  0  0  0  0  0  0  0  0  0  0  0
    0.4206    2.3691    3.1639 C   0  0  0  0  0  0  0  0  0  0  0  0
    1.7655    0.8926    1.2718 H   0  0  0  0  0  0  0  0  0  0  0  0
   -1.1950    1.2915    0.7247 H   0  0  0  0  0  0  0  0  0  0  0  0
    1.5705   -1.3636   -1.8002 H   0  0  0  0  0  0  0  0  0  0  0  0
    0.1489   -1.0325   -2.7905 H   0  0  0  0  0  0  0  0  0  0  0  0
   -1.1271   -2.8310   -1.7325 H   0  0  0  0  0  0  0  0  0  0  0  0
    1.4901   -3.3302   -0.0264 H   0  0  0  0  0  0  0  0  0  0  0  0
   -0.3715   -3.9893    1.6546 H   0  0  0  0  0  0  0  0  0  0  0  0
   -1.5317   -3.2459    0.5758 H   0  0  0  0  0  0  0  0  0  0  0  0
    0.3879   -2.0235    2.4558 H   0  0  0  0  0  0  0  0  0  0  0  0
   -1.1613   -1.4367    1.8935 H   0  0  0  0  0  0  0  0  0  0  0  0
    1.1966    1.1539   -1.2253 H   0  0  0  0  0  0  0  0  0  0  0  0
    1.1466    3.2207    0.6018 H   0  0  0  0  0  0  0  0  0  0  0  0
    0.9440    0.2869    3.5091 H   0  0  0  0  0  0  0  0  0  0  0  0
   -0.7284    0.5469    3.0088 H   0  0  0  0  0  0  0  0  0  0  0  0
   -0.0867    4.3433    2.4096 H   0  0  0  0  0  0  0  0  0  0  0  0
   -1.3979    3.1712    2.3003 H   0  0  0  0  0  0  0  0  0  0  0  0
    1.4829    2.6442    3.1767 H   0  0  0  0  0  0  0  0  0  0  0  0
    0.0374    2.5451    4.1756 H   0  0  0  0  0  0  0  0  0  0  0  0
   -0.8082    1.7573   -1.7743 C   0  0  0  0  0  0  0  0  0  0  0  0
   -1.8262    1.5333   -1.4495 H   0  0  0  0  0  0  0  0  0  0  0  0
   -0.7083    3.7831   -0.3738 C   0  0  0  0  0  0  0  0  0  0  0  0
   -0.4583    4.8478   -0.3215 H   0  0  0  0  0  0  0  0  0  0  0  0
   -1.7911    3.6823   -0.2363 H   0  0  0  0  0  0  0  0  0  0  0  0
   -0.2551    3.2015   -1.6837 C   0  0  0  0  0  0  0  0  0  0  0  0
    0.8150    3.3926   -1.7865 H   0  0  0  0  0  0  0  0  0  0  0  0
    0.2958   -4.8379   -1.0638 C   0  0  0  0  0  0  0  0  0  0  0  0
   -0.7111   -5.2713   -1.0514 H   0  0  0  0  0  0  0  0  0  0  0  0
    1.0221   -5.6146   -0.8115 H   0  0  0  0  0  0  0  0  0  0  0  0
    0.6127   -4.0135   -2.3403 C   0  0  0  0  0  0  0  0  0  0  0  0
    1.6838   -3.9004   -2.5438 H   0  0  0  0  0  0  0  0  0  0  0  0
    0.1072   -4.3407   -3.2522 H   0  0  0  0  0  0  0  0  0  0  0  0
   -0.8306    2.6853   -2.9538 C   0  0  0  0  0  0  0  0  0  0  0  0
   -0.1576    2.4636   -3.7751 H   0  0  0  0  0  0  0  0  0  0  0  0
   -1.7855    3.0864   -3.2754 H   0  0  0  0  0  0  0  0  0  0  0  0
  1  2  1  0  0  0  0
  1  7  1  0  0  0  0
  1  8  1  0  0  0  0
  2  3  1  0  0  0  0
  2  9  1  0  0  0  0
  3  4  1  0  0  0  0
  4  5  1  0  0  0  0
  5  6  1  0  0  0  0
  6  7  1  0  0  0  0
  2 10  1  0  0  0  0
  1 11  1  0  0  0  0
 11 12  1  0  0  0  0
 10 12  1  0  0  0  0
 12 13  1  0  0  0  0
 11 14  1  0  0  0  0
 13 15  1  0  0  0  0
 14 16  1  0  0  0  0
 15 16  1  0  0  0  0
 11 17  1  0  0  0  0
 12 18  1  0  0  0  0
  3 19  1  0  0  0  0
  3 20  1  0  0  0  0
  4 21  1  0  0  0  0
  5 22  1  0  0  0  0
  6 23  1  0  0  0  0
  6 24  1  0  0  0  0
  7 25  1  0  0  0  0
  7 26  1  0  0  0  0
 10 27  1  0  0  0  0
 13 28  1  0  0  0  0
 14 29  1  0  0  0  0
 14 30  1  0  0  0  0
 15 31  1  0  0  0  0
 15 32  1  0  0  0  0
 16 33  1  0  0  0  0
 16 34  1  0  0  0  0
 35 36  1  0  0  0  0
 10 35  1  0  0  0  0
 37 38  1  0  0  0  0
 37 39  1  0  0  0  0
 13 37  1  0  0  0  0
 40 41  1  0  0  0  0
 35 40  1  0  0  0  0
 37 40  1  0  0  0  0
 42 43  1  0  0  0  0
 42 44  1  0  0  0  0
  5 42  1  0  0  0  0
 45 46  1  0  0  0  0
 45 47  1  0  0  0  0
  4 45  1  0  0  0  0
 45 42  1  0  0  0  0
 48 49  1  0  0  0  0
 48 50  1  0  0  0  0
 40 48  1  0  0  0  0
 35 48  1  0  0  0  0
M  END
$$$$
