M0001
  Spartan 06222110363D

 86109  0  0  0  0  0  0  0  0999 V2000
   -1.4771    0.0000   -1.2994 C   0  0  0  0  0  0  0  0  0  0  0  0
   -1.4533    0.0000   -2.8514 C   0  0  0  0  0  0  0  0  0  0  0  0
    0.0000    0.0000   -0.7793 C   0  0  0  0  0  0  0  0  0  0  0  0
    0.0000    0.0000    0.7793 C   0  0  0  0  0  0  0  0  0  0  0  0
   -0.7385   -1.2792    1.2994 C   0  0  0  0  0  0  0  0  0  0  0  0
   -2.1949   -1.2595    0.7708 C   0  0  0  0  0  0  0  0  0  0  0  0
   -2.1882   -1.2711   -0.7708 C   0  0  0  0  0  0  0  0  0  0  0  0
   -0.7266   -1.2586    2.8514 C   0  0  0  0  0  0  0  0  0  0  0  0
   -2.4831    0.0000   -3.2342 H   0  0  0  0  0  0  0  0  0  0  0  0
   -3.2263   -1.2868   -1.1300 H   0  0  0  0  0  0  0  0  0  0  0  0
   -1.4632    0.0000    3.3551 C   0  0  0  0  0  0  0  0  0  0  0  0
   -1.4834    0.0000    4.4521 H   0  0  0  0  0  0  0  0  0  0  0  0
   -2.9159    0.0000    1.2960 C   0  0  0  0  0  0  0  0  0  0  0  0
   -3.9564    0.0000    0.9480 H   0  0  0  0  0  0  0  0  0  0  0  0
   -0.7385    1.2792    1.2994 C   0  0  0  0  0  0  0  0  0  0  0  0
   -2.1882    1.2711   -0.7708 C   0  0  0  0  0  0  0  0  0  0  0  0
   -3.2263    1.2868   -1.1300 H   0  0  0  0  0  0  0  0  0  0  0  0
   -0.7266    1.2586    2.8514 C   0  0  0  0  0  0  0  0  0  0  0  0
   -1.2416    2.1504    3.2342 H   0  0  0  0  0  0  0  0  0  0  0  0
    0.0067    2.5306    0.7708 C   0  0  0  0  0  0  0  0  0  0  0  0
   -0.4988    3.4375    1.1300 H   0  0  0  0  0  0  0  0  0  0  0  0
   -2.1949    1.2595    0.7708 C   0  0  0  0  0  0  0  0  0  0  0  0
   -2.7276    2.1507    1.1300 H   0  0  0  0  0  0  0  0  0  0  0  0
   -2.9046    0.0000    2.8302 C   0  0  0  0  0  0  0  0  0  0  0  0
   -3.4393    0.8804    3.2073 H   0  0  0  0  0  0  0  0  0  0  0  0
   -1.4579    2.5252   -1.2960 C   0  0  0  0  0  0  0  0  0  0  0  0
   -1.9782    3.4264   -0.9480 H   0  0  0  0  0  0  0  0  0  0  0  0
   -0.0067    2.5306   -0.7708 C   0  0  0  0  0  0  0  0  0  0  0  0
    0.4988    3.4375   -1.1300 H   0  0  0  0  0  0  0  0  0  0  0  0
    0.7385    1.2792   -1.2994 C   0  0  0  0  0  0  0  0  0  0  0  0
   -0.7316    1.2672   -3.3551 C   0  0  0  0  0  0  0  0  0  0  0  0
   -0.7417    1.2846   -4.4521 H   0  0  0  0  0  0  0  0  0  0  0  0
    0.7266    1.2586   -2.8514 C   0  0  0  0  0  0  0  0  0  0  0  0
    1.2416    2.1504   -3.2342 H   0  0  0  0  0  0  0  0  0  0  0  0
   -1.4523    2.5155   -2.8302 C   0  0  0  0  0  0  0  0  0  0  0  0
   -0.9572    3.4187   -3.2073 H   0  0  0  0  0  0  0  0  0  0  0  0
   -2.4821    2.5383   -3.2073 H   0  0  0  0  0  0  0  0  0  0  0  0
    0.7316   -1.2672    3.3551 C   0  0  0  0  0  0  0  0  0  0  0  0
    0.7417   -1.2846    4.4521 H   0  0  0  0  0  0  0  0  0  0  0  0
    0.7316    1.2672    3.3551 C   0  0  0  0  0  0  0  0  0  0  0  0
    0.7417    1.2846    4.4521 H   0  0  0  0  0  0  0  0  0  0  0  0
    1.4771    0.0000    1.2994 C   0  0  0  0  0  0  0  0  0  0  0  0
    1.4579    2.5252    1.2960 C   0  0  0  0  0  0  0  0  0  0  0  0
    1.9782    3.4264    0.9480 H   0  0  0  0  0  0  0  0  0  0  0  0
    2.1949    1.2595   -0.7708 C   0  0  0  0  0  0  0  0  0  0  0  0
    2.7276    2.1507   -1.1300 H   0  0  0  0  0  0  0  0  0  0  0  0
    2.1882    1.2711    0.7708 C   0  0  0  0  0  0  0  0  0  0  0  0
    3.2263    1.2868    1.1300 H   0  0  0  0  0  0  0  0  0  0  0  0
    1.4533    0.0000    2.8514 C   0  0  0  0  0  0  0  0  0  0  0  0
    2.4831    0.0000    3.2342 H   0  0  0  0  0  0  0  0  0  0  0  0
    1.4523    2.5155    2.8302 C   0  0  0  0  0  0  0  0  0  0  0  0
    2.4821    2.5383    3.2073 H   0  0  0  0  0  0  0  0  0  0  0  0
    0.9572    3.4187    3.2073 H   0  0  0  0  0  0  0  0  0  0  0  0
    2.1882   -1.2711    0.7708 C   0  0  0  0  0  0  0  0  0  0  0  0
    3.2263   -1.2868    1.1300 H   0  0  0  0  0  0  0  0  0  0  0  0
    0.0067   -2.5306    0.7708 C   0  0  0  0  0  0  0  0  0  0  0  0
   -1.4579   -2.5252   -1.2960 C   0  0  0  0  0  0  0  0  0  0  0  0
    0.7385   -1.2792   -1.2994 C   0  0  0  0  0  0  0  0  0  0  0  0
    2.9159    0.0000   -1.2960 C   0  0  0  0  0  0  0  0  0  0  0  0
    3.9564    0.0000   -0.9480 H   0  0  0  0  0  0  0  0  0  0  0  0
   -0.7316   -1.2672   -3.3551 C   0  0  0  0  0  0  0  0  0  0  0  0
   -0.7417   -1.2846   -4.4521 H   0  0  0  0  0  0  0  0  0  0  0  0
    2.1949   -1.2595   -0.7708 C   0  0  0  0  0  0  0  0  0  0  0  0
    2.7276   -2.1507   -1.1300 H   0  0  0  0  0  0  0  0  0  0  0  0
   -0.0067   -2.5306   -0.7708 C   0  0  0  0  0  0  0  0  0  0  0  0
    0.4988   -3.4375   -1.1300 H   0  0  0  0  0  0  0  0  0  0  0  0
    0.7266   -1.2586   -2.8514 C   0  0  0  0  0  0  0  0  0  0  0  0
    1.2416   -2.1504   -3.2342 H   0  0  0  0  0  0  0  0  0  0  0  0
    1.4579   -2.5252    1.2960 C   0  0  0  0  0  0  0  0  0  0  0  0
    1.9782   -3.4264    0.9480 H   0  0  0  0  0  0  0  0  0  0  0  0
   -1.4523   -2.5155   -2.8302 C   0  0  0  0  0  0  0  0  0  0  0  0
   -2.4821   -2.5383   -3.2073 H   0  0  0  0  0  0  0  0  0  0  0  0
   -0.9572   -3.4187   -3.2073 H   0  0  0  0  0  0  0  0  0  0  0  0
    1.4523   -2.5155    2.8302 C   0  0  0  0  0  0  0  0  0  0  0  0
    2.4821   -2.5383    3.2073 H   0  0  0  0  0  0  0  0  0  0  0  0
    1.4632    0.0000   -3.3551 C   0  0  0  0  0  0  0  0  0  0  0  0
    1.4834    0.0000   -4.4521 H   0  0  0  0  0  0  0  0  0  0  0  0
    2.9046    0.0000   -2.8302 C   0  0  0  0  0  0  0  0  0  0  0  0
    3.4393    0.8804   -3.2073 H   0  0  0  0  0  0  0  0  0  0  0  0
    3.4393   -0.8804   -3.2073 H   0  0  0  0  0  0  0  0  0  0  0  0
   -0.4988   -3.4375    1.1300 H   0  0  0  0  0  0  0  0  0  0  0  0
    0.9572   -3.4187    3.2073 H   0  0  0  0  0  0  0  0  0  0  0  0
   -1.9782   -3.4264   -0.9480 H   0  0  0  0  0  0  0  0  0  0  0  0
   -1.2416   -2.1504    3.2342 H   0  0  0  0  0  0  0  0  0  0  0  0
   -2.7276   -2.1507    1.1300 H   0  0  0  0  0  0  0  0  0  0  0  0
   -3.4393   -0.8804    3.2073 H   0  0  0  0  0  0  0  0  0  0  0  0
  1  2  1  0  0  0  0
  1  3  1  0  0  0  0
  3  4  1  0  0  0  0
  4  5  1  0  0  0  0
  5  6  1  0  0  0  0
  6  7  1  0  0  0  0
  7  1  1  0  0  0  0
  8  5  1  0  0  0  0
  2  9  1  0  0  0  0
  7 10  1  0  0  0  0
 11 12  1  0  0  0  0
  8 11  1  0  0  0  0
 13 14  1  0  0  0  0
  6 13  1  0  0  0  0
  4 15  1  0  0  0  0
 16 17  1  0  0  0  0
  1 16  1  0  0  0  0
 18 19  1  0  0  0  0
 15 18  1  0  0  0  0
 20 21  1  0  0  0  0
 22 23  1  0  0  0  0
 15 22  1  0  0  0  0
 24 25  1  0  0  0  0
 13 24  1  0  0  0  0
 26 27  1  0  0  0  0
 16 26  1  0  0  0  0
 16 22  1  0  0  0  0
 22 13  1  0  0  0  0
 15 20  1  0  0  0  0
 18 11  1  0  0  0  0
 11 24  1  0  0  0  0
 28 29  1  0  0  0  0
 20 28  1  0  0  0  0
  3 30  1  0  0  0  0
 30 28  1  0  0  0  0
 28 26  1  0  0  0  0
 31 32  1  0  0  0  0
  2 31  1  0  0  0  0
 33 34  1  0  0  0  0
 30 33  1  0  0  0  0
 35 36  1  0  0  0  0
 35 37  1  0  0  0  0
 26 35  1  0  0  0  0
 35 31  1  0  0  0  0
 33 31  1  0  0  0  0
 38 39  1  0  0  0  0
  8 38  1  0  0  0  0
 40 41  1  0  0  0  0
 18 40  1  0  0  0  0
  4 42  1  0  0  0  0
 43 44  1  0  0  0  0
 20 43  1  0  0  0  0
 45 46  1  0  0  0  0
 30 45  1  0  0  0  0
 47 48  1  0  0  0  0
 45 47  1  0  0  0  0
 49 50  1  0  0  0  0
 42 49  1  0  0  0  0
 51 52  1  0  0  0  0
 51 53  1  0  0  0  0
 40 51  1  0  0  0  0
 49 38  1  0  0  0  0
 42 47  1  0  0  0  0
 43 47  1  0  0  0  0
 40 49  1  0  0  0  0
 43 51  1  0  0  0  0
 54 55  1  0  0  0  0
 42 54  1  0  0  0  0
  5 56  1  0  0  0  0
  7 57  1  0  0  0  0
  3 58  1  0  0  0  0
 59 60  1  0  0  0  0
 45 59  1  0  0  0  0
 61 62  1  0  0  0  0
  2 61  1  0  0  0  0
 63 64  1  0  0  0  0
 54 63  1  0  0  0  0
 65 66  1  0  0  0  0
 58 65  1  0  0  0  0
 67 68  1  0  0  0  0
 58 67  1  0  0  0  0
 69 70  1  0  0  0  0
 56 69  1  0  0  0  0
 71 72  1  0  0  0  0
 71 73  1  0  0  0  0
 61 71  1  0  0  0  0
 65 56  1  0  0  0  0
 57 65  1  0  0  0  0
 71 57  1  0  0  0  0
 63 58  1  0  0  0  0
 67 61  1  0  0  0  0
 59 63  1  0  0  0  0
 54 69  1  0  0  0  0
 74 75  1  0  0  0  0
 69 74  1  0  0  0  0
 76 77  1  0  0  0  0
 33 76  1  0  0  0  0
 78 79  1  0  0  0  0
 78 80  1  0  0  0  0
 76 78  1  0  0  0  0
 74 38  1  0  0  0  0
 76 67  1  0  0  0  0
 78 59  1  0  0  0  0
 56 81  1  0  0  0  0
 74 82  1  0  0  0  0
 57 83  1  0  0  0  0
  8 84  1  0  0  0  0
  6 85  1  0  0  0  0
 24 86  1  0  0  0  0
M  END
$$$$
