
  CDK     05232316293D

 12 12  0  0  0  0  0  0  0  0999 V2000
   -1.3649    0.2187   -0.0016 C   0  0  0  0  0  0  0  0  0  0  0  0
   -0.4930    1.2914   -0.0007 C   0  0  0  0  0  0  0  0  0  0  0  0
    0.8720    1.0727   -0.0002 C   0  0  0  0  0  0  0  0  0  0  0  0
    1.3649   -0.2187   -0.0007 C   0  0  0  0  0  0  0  0  0  0  0  0
    0.4930   -1.2914   -0.0016 C   0  0  0  0  0  0  0  0  0  0  0  0
   -0.8720   -1.0727    0.0033 C   0  0  0  0  0  0  0  0  0  0  0  0
    0.9591   -2.5121   -0.0016 H   0  0  0  0  0  0  0  0  0  0  0  0
   -0.9591    2.5121    0.0002 H   0  0  0  0  0  0  0  0  0  0  0  0
   -2.6550    0.4255   -0.0016 H   0  0  0  0  0  0  0  0  0  0  0  0
    1.6960    2.0866    0.0011 H   0  0  0  0  0  0  0  0  0  0  0  0
   -1.6960   -2.0866    0.0024 H   0  0  0  0  0  0  0  0  0  0  0  0
    2.6551   -0.4255    0.0002 H   0  0  0  0  0  0  0  0  0  0  0  0
  1  2  1  0  0  0  0
  2  3  2  0  0  0  0
  3  4  1  0  0  0  0
  4  5  2  0  0  0  0
  5  6  1  0  0  0  0
  1  6  2  0  0  0  0
  5  7  1  0  0  0  0
  2  8  1  0  0  0  0
  1  9  1  0  0  0  0
  3 10  1  0  0  0  0
  6 11  1  0  0  0  0
  4 12  1  0  0  0  0
M  END
$$$$

  CDK     05232316293D

 10 10  0  0  0  0  0  0  0  0999 V2000
   -0.0001    1.1342   -0.0021 N   0  0  0  0  0  0  0  0  0  0  0  0
    1.1081    0.3400   -0.0004 C   0  0  0  0  0  0  0  0  0  0  0  0
    0.7045   -0.9467   -0.0003 C   0  0  0  0  0  0  0  0  0  0  0  0
   -0.7044   -0.9469   -0.0020 C   0  0  0  0  0  0  0  0  0  0  0  0
   -1.1081    0.3398    0.0028 C   0  0  0  0  0  0  0  0  0  0  0  0
    2.3473    0.7541    0.0017 H   0  0  0  0  0  0  0  0  0  0  0  0
    1.4780   -1.9998    0.0012 H   0  0  0  0  0  0  0  0  0  0  0  0
   -1.4777   -2.0001   -0.0025 H   0  0  0  0  0  0  0  0  0  0  0  0
   -0.0002    2.4198   -0.0027 H   0  0  0  0  0  0  0  0  0  0  0  0
   -2.3474    0.7537    0.0037 H   0  0  0  0  0  0  0  0  0  0  0  0
  1  2  1  0  0  0  0
  2  3  2  0  0  0  0
  3  4  1  0  0  0  0
  4  5  2  0  0  0  0
  1  5  1  0  0  0  0
  2  6  1  0  0  0  0
  3  7  1  0  0  0  0
  4  8  1  0  0  0  0
  1  9  1  0  0  0  0
  5 10  1  0  0  0  0
M  END
$$$$

  CDK     05232316293D

  9  9  0  0  0  0  0  0  0  0999 V2000
    1.0656    0.6809    0.0015 N   0  0  0  0  0  0  0  0  0  0  0  0
   -0.0959    1.4641   -0.0004 N   0  0  0  0  0  0  0  0  0  0  0  0
   -1.1296    0.6622   -0.0001 C   0  0  0  0  0  0  0  0  0  0  0  0
   -0.6605   -0.6555    0.0020 C   0  0  0  0  0  0  0  0  0  0  0  0
    0.6921   -0.6159   -0.0030 C   0  0  0  0  0  0  0  0  0  0  0  0
   -2.3838    1.0288   -0.0018 H   0  0  0  0  0  0  0  0  0  0  0  0
    2.2739    1.1200    0.0019 H   0  0  0  0  0  0  0  0  0  0  0  0
    1.4931   -1.6482   -0.0029 H   0  0  0  0  0  0  0  0  0  0  0  0
   -1.3979   -1.7341    0.0029 H   0  0  0  0  0  0  0  0  0  0  0  0
  1  2  1  0  0  0  0
  2  3  2  0  0  0  0
  3  4  1  0  0  0  0
  4  5  2  0  0  0  0
  1  5  1  0  0  0  0
  3  6  1  0  0  0  0
  1  7  1  0  0  0  0
  5  8  1  0  0  0  0
  4  9  1  0  0  0  0
M  END
$$$$

  CDK     05232316293D

  9  9  0  0  0  0  0  0  0  0999 V2000
    0.6660    0.6188   -0.0021 N   0  0  0  0  0  0  0  0  0  0  0  0
    1.0758   -0.6680    0.0000 C   0  0  0  0  0  0  0  0  0  0  0  0
    0.0250   -1.4418    0.0001 N   0  0  0  0  0  0  0  0  0  0  0  0
   -1.0820   -0.6845   -0.0018 C   0  0  0  0  0  0  0  0  0  0  0  0
   -0.7027    0.6078    0.0027 C   0  0  0  0  0  0  0  0  0  0  0  0
   -1.4900    1.6506    0.0030 H   0  0  0  0  0  0  0  0  0  0  0  0
    2.3186   -1.0714    0.0023 H   0  0  0  0  0  0  0  0  0  0  0  0
    1.4205    1.6597   -0.0029 H   0  0  0  0  0  0  0  0  0  0  0  0
   -2.3127   -1.1234   -0.0016 H   0  0  0  0  0  0  0  0  0  0  0  0
  1  2  1  0  0  0  0
  2  3  2  0  0  0  0
  3  4  1  0  0  0  0
  4  5  2  0  0  0  0
  1  5  1  0  0  0  0
  5  6  1  0  0  0  0
  2  7  1  0  0  0  0
  1  8  1  0  0  0  0
  4  9  1  0  0  0  0
M  END
$$$$

  CDK     05232316293D

 22 23  0  0  0  0  0  0  0  0999 V2000
   -1.3649    0.2187   -0.0016 C   0  0  0  0  0  0  0  0  0  0  0  0
   -0.4930    1.2914   -0.0007 C   0  0  0  0  0  0  0  0  0  0  0  0
    0.8720    1.0727   -0.0002 C   0  0  0  0  0  0  0  0  0  0  0  0
    1.3649   -0.2187   -0.0007 C   0  0  0  0  0  0  0  0  0  0  0  0
    0.4930   -1.2914   -0.0016 C   0  0  0  0  0  0  0  0  0  0  0  0
   -0.8720   -1.0727    0.0033 C   0  0  0  0  0  0  0  0  0  0  0  0
    1.8224    2.2421    0.0013 C   0  0  0  0  0  0  0  0  0  0  0  0
    1.3293    3.5335    0.0022 C   0  0  0  0  0  0  0  0  0  0  0  0
    2.2011    4.6064    0.0041 C   0  0  0  0  0  0  0  0  0  0  0  0
    3.5660    4.3876    0.0050 C   0  0  0  0  0  0  0  0  0  0  0  0
    4.0591    3.0962    0.0041 C   0  0  0  0  0  0  0  0  0  0  0  0
    3.1873    2.0234    0.0076 C   0  0  0  0  0  0  0  0  0  0  0  0
    5.3493    2.8897    0.0054 H   0  0  0  0  0  0  0  0  0  0  0  0
    1.7349    5.8269    0.0054 H   0  0  0  0  0  0  0  0  0  0  0  0
    4.3900    5.4017    0.0071 H   0  0  0  0  0  0  0  0  0  0  0  0
    0.0391    3.7401    0.0018 H   0  0  0  0  0  0  0  0  0  0  0  0
    3.6534    0.8028    0.0067 H   0  0  0  0  0  0  0  0  0  0  0  0
   -0.9591    2.5121    0.0002 H   0  0  0  0  0  0  0  0  0  0  0  0
    2.6551   -0.4255    0.0002 H   0  0  0  0  0  0  0  0  0  0  0  0
    0.9591   -2.5121   -0.0016 H   0  0  0  0  0  0  0  0  0  0  0  0
   -1.6960   -2.0866    0.0024 H   0  0  0  0  0  0  0  0  0  0  0  0
   -2.6550    0.4255   -0.0016 H   0  0  0  0  0  0  0  0  0  0  0  0
  1  2  1  0  0  0  0
  2  3  2  0  0  0  0
  3  4  1  0  0  0  0
  4  5  2  0  0  0  0
  5  6  1  0  0  0  0
  1  6  2  0  0  0  0
  7  8  1  0  0  0  0
  8  9  2  0  0  0  0
  9 10  1  0  0  0  0
 10 11  2  0  0  0  0
 11 12  1  0  0  0  0
  7 12  2  0  0  0  0
  3  7  1  0  0  0  0
 11 13  1  0  0  0  0
  9 14  1  0  0  0  0
 10 15  1  0  0  0  0
  8 16  1  0  0  0  0
 12 17  1  0  0  0  0
  2 18  1  0  0  0  0
  4 19  1  0  0  0  0
  5 20  1  0  0  0  0
  6 21  1  0  0  0  0
  1 22  1  0  0  0  0
M  END
$$$$

  CDK     05232316293D

  8  8  0  0  0  0  0  0  0  0999 V2000
    0.6468   -1.4208    0.0000 N   0  0  0  0  0  0  0  0  0  0  0  0
   -0.5624   -1.4383    0.0000 O   0  0  0  0  0  0  0  0  0  0  0  0
   -1.0731   -0.1990   -0.0002 C   0  0  0  0  0  0  0  0  0  0  0  0
   -0.0181    0.6506   -0.0004 C   0  0  0  0  0  0  0  0  0  0  0  0
    1.1084   -0.2036   -0.0003 C   0  0  0  0  0  0  0  0  0  0  0  0
   -2.3388    0.1255    0.0002 H   0  0  0  0  0  0  0  0  0  0  0  0
    2.3643    0.1571    0.0002 H   0  0  0  0  0  0  0  0  0  0  0  0
   -0.0372    1.9570   -0.0001 H   0  0  0  0  0  0  0  0  0  0  0  0
  1  2  1  0  0  0  0
  2  3  1  0  0  0  0
  3  4  2  0  0  0  0
  4  5  1  0  0  0  0
  1  5  2  0  0  0  0
  3  6  1  0  0  0  0
  5  7  1  0  0  0  0
  4  8  1  0  0  0  0
M  END
$$$$

  CDK     05232316293D

  8  8  0  0  0  0  0  0  0  0999 V2000
   -0.5760    1.0824    0.0002 N   0  0  0  0  0  0  0  0  0  0  0  0
   -1.3382    0.0262    0.0002 C   0  0  0  0  0  0  0  0  0  0  0  0
   -0.5617   -1.0655    0.0002 O   0  0  0  0  0  0  0  0  0  0  0  0
    0.7223   -0.6565    0.0002 C   0  0  0  0  0  0  0  0  0  0  0  0
    0.7093    0.6867    0.0002 C   0  0  0  0  0  0  0  0  0  0  0  0
   -2.6448    0.0306   -0.0002 H   0  0  0  0  0  0  0  0  0  0  0  0
    1.7808   -1.4225   -0.0001 H   0  0  0  0  0  0  0  0  0  0  0  0
    1.7566    1.4680   -0.0001 H   0  0  0  0  0  0  0  0  0  0  0  0
  1  2  2  0  0  0  0
  2  3  1  0  0  0  0
  3  4  1  0  0  0  0
  4  5  2  0  0  0  0
  1  5  1  0  0  0  0
  2  6  1  0  0  0  0
  4  7  1  0  0  0  0
  5  8  1  0  0  0  0
M  END
$$$$

  CDK     05232316293D

  8  8  0  0  0  0  0  0  0  0999 V2000
    0.6708   -1.4958    0.0003 N   0  0  0  0  0  0  0  0  0  0  0  0
   -1.0172   -1.3306    0.0000 S   0  0  0  0  0  0  0  0  0  0  0  0
   -1.0206    0.3899   -0.0003 C   0  0  0  0  0  0  0  0  0  0  0  0
    0.2809    0.7537   -0.0002 C   0  0  0  0  0  0  0  0  0  0  0  0
    1.1736   -0.2961    0.0001 C   0  0  0  0  0  0  0  0  0  0  0  0
    0.6629    2.0032    0.0001 H   0  0  0  0  0  0  0  0  0  0  0  0
   -2.0623    1.1786    0.0000 H   0  0  0  0  0  0  0  0  0  0  0  0
    2.4648   -0.0958   -0.0002 H   0  0  0  0  0  0  0  0  0  0  0  0
  1  2  1  0  0  0  0
  2  3  1  0  0  0  0
  3  4  2  0  0  0  0
  4  5  1  0  0  0  0
  1  5  2  0  0  0  0
  4  6  1  0  0  0  0
  3  7  1  0  0  0  0
  5  8  1  0  0  0  0
M  END
$$$$

  CDK     05232316293D

 11 11  0  0  0  0  0  0  0  0999 V2000
    0.0000   -1.6089    0.0001 N   0  0  0  0  0  0  0  0  0  0  0  0
   -1.1518   -0.9668   -0.0002 C   0  0  0  0  0  0  0  0  0  0  0  0
   -1.1911    0.4147   -0.0002 C   0  0  0  0  0  0  0  0  0  0  0  0
    0.0000    1.1244   -0.0003 C   0  0  0  0  0  0  0  0  0  0  0  0
    1.1911    0.4147   -0.0004 C   0  0  0  0  0  0  0  0  0  0  0  0
    1.1518   -0.9668    0.0000 C   0  0  0  0  0  0  0  0  0  0  0  0
   -2.2689   -1.6446   -0.0001 H   0  0  0  0  0  0  0  0  0  0  0  0
    0.0000    2.4310    0.0001 H   0  0  0  0  0  0  0  0  0  0  0  0
   -2.3362    1.0440    0.0003 H   0  0  0  0  0  0  0  0  0  0  0  0
    2.2689   -1.6446    0.0003 H   0  0  0  0  0  0  0  0  0  0  0  0
    2.3362    1.0440   -0.0001 H   0  0  0  0  0  0  0  0  0  0  0  0
  1  2  1  0  0  0  0
  2  3  2  0  0  0  0
  3  4  1  0  0  0  0
  4  5  2  0  0  0  0
  5  6  1  0  0  0  0
  1  6  2  0  0  0  0
  2  7  1  0  0  0  0
  4  8  1  0  0  0  0
  3  9  1  0  0  0  0
  6 10  1  0  0  0  0
  5 11  1  0  0  0  0
M  END
$$$$

  CDK     05232316293D

 10 10  0  0  0  0  0  0  0  0999 V2000
   -0.9693    1.1513    0.0002 N   0  0  0  0  0  0  0  0  0  0  0  0
   -1.6107    0.0000    0.0002 C   0  0  0  0  0  0  0  0  0  0  0  0
   -0.9693   -1.1513    0.0002 N   0  0  0  0  0  0  0  0  0  0  0  0
    0.3534   -1.1905    0.0001 C   0  0  0  0  0  0  0  0  0  0  0  0
    1.0631    0.0000    0.0000 C   0  0  0  0  0  0  0  0  0  0  0  0
    0.3534    1.1905    0.0001 C   0  0  0  0  0  0  0  0  0  0  0  0
    2.3697    0.0000    0.0003 H   0  0  0  0  0  0  0  0  0  0  0  0
    0.9819   -2.3360   -0.0004 H   0  0  0  0  0  0  0  0  0  0  0  0
   -2.9173    0.0000   -0.0001 H   0  0  0  0  0  0  0  0  0  0  0  0
    0.9819    2.3360   -0.0004 H   0  0  0  0  0  0  0  0  0  0  0  0
  1  2  1  0  0  0  0
  2  3  2  0  0  0  0
  3  4  1  0  0  0  0
  4  5  2  0  0  0  0
  5  6  1  0  0  0  0
  1  6  2  0  0  0  0
  5  7  1  0  0  0  0
  4  8  1  0  0  0  0
  2  9  1  0  0  0  0
  6 10  1  0  0  0  0
M  END
$$$$

  CDK     05242317043D

 30 33  0  0  0  0  0  0  0  0999 V2000
   -1.4873    1.2567   -0.8172 C   0  0  0  0  0  0  0  0  0  0  0  0
   -2.6987    1.8835   -0.6760 C   0  0  0  0  0  0  0  0  0  0  0  0
   -3.7482    1.2825    0.0073 C   0  0  0  0  0  0  0  0  0  0  0  0
   -3.6215    0.0143    0.4940 C   0  0  0  0  0  0  0  0  0  0  0  0
   -2.4251   -0.6787    0.2784 C   0  0  0  0  0  0  0  0  0  0  0  0
   -1.2861    0.0209   -0.2038 C   0  0  0  0  0  0  0  0  0  0  0  0
   -2.3518   -2.0806    0.4343 C   0  0  0  0  0  0  0  0  0  0  0  0
   -1.1848   -2.7401    0.2555 C   0  0  0  0  0  0  0  0  0  0  0  0
    0.0128   -2.0405    0.0149 C   0  0  0  0  0  0  0  0  0  0  0  0
    0.0032   -0.6289   -0.0373 C   0  0  0  0  0  0  0  0  0  0  0  0
    1.2128   -2.7276   -0.2721 C   0  0  0  0  0  0  0  0  0  0  0  0
    2.3752   -2.0615   -0.4497 C   0  0  0  0  0  0  0  0  0  0  0  0
    2.4495   -0.6681   -0.2451 C   0  0  0  0  0  0  0  0  0  0  0  0
    1.2826    0.0379    0.1534 C   0  0  0  0  0  0  0  0  0  0  0  0
    3.6510    0.0324   -0.4134 C   0  0  0  0  0  0  0  0  0  0  0  0
    3.7508    1.3077    0.0590 C   0  0  0  0  0  0  0  0  0  0  0  0
    2.6650    1.9153    0.6789 C   0  0  0  0  0  0  0  0  0  0  0  0
    1.4528    1.2872    0.7501 C   0  0  0  0  0  0  0  0  0  0  0  0
   -2.8328    2.8655   -1.1062 F   0  0  0  0  0  0  0  0  0  0  0  0
   -4.6720    1.8208    0.1549 F   0  0  0  0  0  0  0  0  0  0  0  0
   -4.4329   -0.4441    1.0371 F   0  0  0  0  0  0  0  0  0  0  0  0
   -3.2393   -2.6334    0.6987 F   0  0  0  0  0  0  0  0  0  0  0  0
   -1.1764   -3.8183    0.2983 F   0  0  0  0  0  0  0  0  0  0  0  0
    1.2021   -3.8037   -0.3502 F   0  0  0  0  0  0  0  0  0  0  0  0
    3.2578   -2.6041   -0.7509 F   0  0  0  0  0  0  0  0  0  0  0  0
    4.4886   -0.4306   -0.9117 F   0  0  0  0  0  0  0  0  0  0  0  0
    4.6787    1.8477   -0.0491 F   0  0  0  0  0  0  0  0  0  0  0  0
    2.7776    2.8988    1.1107 F   0  0  0  0  0  0  0  0  0  0  0  0
    0.5110    1.8413    1.4683 H   0  0  0  0  0  0  0  0  0  0  0  0
   -0.5535    1.8679   -1.4954 H   0  0  0  0  0  0  0  0  0  0  0  0
  1  2  1  0  0  0  0
  2  3  2  0  0  0  0
  3  4  1  0  0  0  0
  4  5  2  0  0  0  0
  5  6  1  0  0  0  0
  1  6  2  0  0  0  0
  5  7  1  0  0  0  0
  7  8  2  0  0  0  0
  8  9  1  0  0  0  0
  9 10  2  0  0  0  0
  6 10  1  0  0  0  0
  9 11  1  0  0  0  0
 11 12  2  0  0  0  0
 12 13  1  0  0  0  0
 13 14  2  0  0  0  0
 10 14  1  0  0  0  0
 13 15  1  0  0  0  0
 15 16  2  0  0  0  0
 16 17  1  0  0  0  0
 17 18  2  0  0  0  0
 14 18  1  0  0  0  0
  2 19  1  0  0  0  0
  3 20  1  0  0  0  0
  4 21  1  0  0  0  0
  7 22  1  0  0  0  0
  8 23  1  0  0  0  0
 11 24  1  0  0  0  0
 12 25  1  0  0  0  0
 15 26  1  0  0  0  0
 16 27  1  0  0  0  0
 17 28  1  0  0  0  0
 18 29  1  0  0  0  0
  1 30  1  0  0  0  0
M  END
$$$$
