
 OpenBabel07222215353D

 32 33  0  0  0  0  0  0  0  0999 V2000
   -0.9095    0.7165    0.1892 C   0  0  0  0  0  0  0  0  0  0  0  0
   -1.6847    2.0177    0.0004 C   0  0  0  0  0  0  0  0  0  0  0  0
   -0.6858    3.1328    0.3098 C   0  0  0  0  0  0  0  0  0  0  0  0
    0.6684    2.4473    0.4908 C   0  0  0  0  0  0  0  0  0  0  0  0
    0.5323    1.0791   -0.1875 C   0  0  0  0  0  0  0  0  0  0  0  0
    0.7058    1.1009   -1.7233 C   0  0  0  0  0  0  0  0  0  0  0  0
    2.0678    1.5482   -2.1970 C   0  0  0  0  0  0  0  0  0  0  0  0
    2.1862    2.9196   -2.5254 C   0  0  0  0  0  0  0  0  0  0  0  0
    3.4002    3.4904   -2.8946 C   0  0  0  0  0  0  0  0  0  0  0  0
    4.5349    2.6943   -2.9703 C   0  0  0  0  0  0  0  0  0  0  0  0
    4.4436    1.3385   -2.6588 C   0  0  0  0  0  0  0  0  0  0  0  0
    3.2232    0.7528   -2.2762 C   0  0  0  0  0  0  0  0  0  0  0  0
    3.3645   -0.5593   -1.9152 O   0  0  0  0  0  0  0  0  0  0  0  0
    2.3522   -1.4712   -2.3104 C   0  0  0  0  0  0  0  0  0  0  0  0
   -1.3223   -0.1016   -0.4093 H   0  0  0  0  0  0  0  0  0  0  0  0
   -0.9540    0.4172    1.2436 H   0  0  0  0  0  0  0  0  0  0  0  0
   -2.5686    2.0658    0.6442 H   0  0  0  0  0  0  0  0  0  0  0  0
   -2.0340    2.1088   -1.0356 H   0  0  0  0  0  0  0  0  0  0  0  0
   -0.9660    3.6816    1.2155 H   0  0  0  0  0  0  0  0  0  0  0  0
   -0.6537    3.8534   -0.5143 H   0  0  0  0  0  0  0  0  0  0  0  0
    0.8467    2.2979    1.5636 H   0  0  0  0  0  0  0  0  0  0  0  0
    1.4945    3.0587    0.1226 H   0  0  0  0  0  0  0  0  0  0  0  0
    1.2394    0.3651    0.2485 H   0  0  0  0  0  0  0  0  0  0  0  0
   -0.0454    1.7594   -2.1765 H   0  0  0  0  0  0  0  0  0  0  0  0
    0.4506    0.1238   -2.1371 H   0  0  0  0  0  0  0  0  0  0  0  0
    1.3150    3.5708   -2.4530 H   0  0  0  0  0  0  0  0  0  0  0  0
    3.4605    4.5555   -3.1075 H   0  0  0  0  0  0  0  0  0  0  0  0
    5.4882    3.1267   -3.2522 H   0  0  0  0  0  0  0  0  0  0  0  0
    5.3367    0.7233   -2.7119 H   0  0  0  0  0  0  0  0  0  0  0  0
    2.8256   -2.4425   -2.4873 H   0  0  0  0  0  0  0  0  0  0  0  0
    1.8485   -1.1801   -3.2387 H   0  0  0  0  0  0  0  0  0  0  0  0
    1.6417   -1.6053   -1.4911 H   0  0  0  0  0  0  0  0  0  0  0  0
  1  2  1  0  0  0  0
  1  5  1  0  0  0  0
  1 15  1  0  0  0  0
  1 16  1  0  0  0  0
  2  3  1  0  0  0  0
  2 17  1  0  0  0  0
  2 18  1  0  0  0  0
  3  4  1  0  0  0  0
  3 19  1  0  0  0  0
  3 20  1  0  0  0  0
  4  5  1  0  0  0  0
  4 21  1  0  0  0  0
  4 22  1  0  0  0  0
  5  6  1  0  0  0  0
  5 23  1  0  0  0  0
  6  7  1  0  0  0  0
  6 24  1  0  0  0  0
  6 25  1  0  0  0  0
  7  8  1  0  0  0  0
  7 12  2  0  0  0  0
  8  9  2  0  0  0  0
  8 26  1  0  0  0  0
  9 10  1  0  0  0  0
  9 27  1  0  0  0  0
 10 11  2  0  0  0  0
 10 28  1  0  0  0  0
 11 12  1  0  0  0  0
 11 29  1  0  0  0  0
 12 13  1  0  0  0  0
 13 14  1  0  0  0  0
 14 30  1  0  0  0  0
 14 31  1  0  0  0  0
 14 32  1  0  0  0  0
M  END
$$$$

 OpenBabel07222215353D

 14 13  0  0  0  0  0  0  0  0999 V2000
    0.8944    0.0431    0.0069 C   0  0  0  0  0  0  0  0  0  0  0  0
    2.3130   -0.0140    0.0294 O   0  0  0  0  0  0  0  0  0  0  0  0
    2.7510    0.7909   -1.1048 O   0  0  0  0  0  0  0  0  0  0  0  0
    4.1794    0.7642   -1.0482 C   0  0  0  0  0  0  0  0  0  0  0  0
    4.7327    1.5759   -2.2127 C   0  0  0  0  0  0  0  0  0  0  0  0
    4.3238    2.9382   -2.1264 O   0  0  0  0  0  0  0  0  0  0  0  0
    0.5069   -0.5582    0.8333 H   0  0  0  0  0  0  0  0  0  0  0  0
    0.5187   -0.3683   -0.9361 H   0  0  0  0  0  0  0  0  0  0  0  0
    0.5563    1.0755    0.1279 H   0  0  0  0  0  0  0  0  0  0  0  0
    4.5213   -0.2738   -1.1197 H   0  0  0  0  0  0  0  0  0  0  0  0
    4.5017    1.1949   -0.0944 H   0  0  0  0  0  0  0  0  0  0  0  0
    4.3685    1.1814   -3.1685 H   0  0  0  0  0  0  0  0  0  0  0  0
    5.8255    1.5490   -2.2127 H   0  0  0  0  0  0  0  0  0  0  0  0
    3.3490    2.9303   -2.1063 H   0  0  0  0  0  0  0  0  0  0  0  0
  1  2  1  0  0  0  0
  1  7  1  0  0  0  0
  1  8  1  0  0  0  0
  1  9  1  0  0  0  0
  2  3  1  0  0  0  0
  3  4  1  0  0  0  0
  4  5  1  0  0  0  0
  4 10  1  0  0  0  0
  4 11  1  0  0  0  0
  5  6  1  0  0  0  0
  5 12  1  0  0  0  0
  5 13  1  0  0  0  0
  6 14  1  0  0  0  0
M  END
$$$$

 OpenBabel07222215353D

  9  8  0  0  0  0  0  0  0  0999 V2000
    0.5795   -0.1102   -0.4587 Pt  0  0  0  0  0  0  0  0  0  0  0  0
    0.5294    2.2756   -1.2717 Br  0  0  0  0  0  0  0  0  0  0  0  0
    0.6039   -2.5086    0.3173 Br  0  0  0  0  0  0  0  0  0  0  0  0
    0.2307    0.5027    1.4662 N   0  0  0  0  0  0  0  0  0  0  0  0
    2.5968    0.0520   -0.1327 N   0  0  0  0  0  0  0  0  0  0  0  0
   -0.8025    0.5632    1.6043 H   0  0  0  0  0  0  0  0  0  0  0  0
    0.6350    1.4563    1.5931 H   0  0  0  0  0  0  0  0  0  0  0  0
    3.0901   -0.2414   -1.0049 H   0  0  0  0  0  0  0  0  0  0  0  0
    2.8669   -0.6046    0.6332 H   0  0  0  0  0  0  0  0  0  0  0  0
  1  2  1  0  0  0  0
  1  3  1  0  0  0  0
  1  4  1  0  0  0  0
  1  5  1  0  0  0  0
  4  6  1  0  0  0  0
  4  7  1  0  0  0  0
  5  8  1  0  0  0  0
  5  9  1  0  0  0  0
M  END
$$$$

 OpenBabel07222215353D

  9  8  0  0  0  0  0  0  0  0999 V2000
    0.7322    0.2769   -0.4377 Pt  0  0  0  0  0  0  0  0  0  0  0  0
    0.6611    2.4531    0.8332 Br  0  0  0  0  0  0  0  0  0  0  0  0
    0.7730   -1.7419   -1.6586 Cl  0  0  0  0  0  0  0  0  0  0  0  0
    0.3888   -0.7787    1.2853 N   0  0  0  0  0  0  0  0  0  0  0  0
    2.7509    0.1512   -0.0986 N   0  0  0  0  0  0  0  0  0  0  0  0
   -0.6430   -0.8288    1.4343 H   0  0  0  0  0  0  0  0  0  0  0  0
    0.8098   -0.2555    2.0848 H   0  0  0  0  0  0  0  0  0  0  0  0
    3.2408    0.6331   -0.8835 H   0  0  0  0  0  0  0  0  0  0  0  0
    3.0305   -0.8550   -0.1065 H   0  0  0  0  0  0  0  0  0  0  0  0
  1  2  1  0  0  0  0
  1  3  1  0  0  0  0
  1  4  1  0  0  0  0
  1  5  1  0  0  0  0
  4  6  1  0  0  0  0
  4  7  1  0  0  0  0
  5  8  1  0  0  0  0
  5  9  1  0  0  0  0
M  END
$$$$
