MOL1
 OpenBabel07192200223D

 43 60  0  0  0  0  0  0  0  0999 V2000
    0.0000    0.0000    0.0000 C   0  0  0  0  0  0  0  0  0  0  0  0
    0.7351    1.2442    0.2075 C   0  0  0  0  0  0  0  0  0  0  0  0
    0.7232   -1.2444   -0.1832 C   0  0  0  0  0  0  0  0  0  0  0  0
   -1.0920   -0.0042    0.0084 H   0  0  0  0  0  0  0  0  0  0  0  0
    2.9041   -0.0001    0.0209 C   0  0  0  0  0  0  0  0  0  0  0  0
    2.1877    1.2379    0.2026 C   0  0  0  0  0  0  0  0  0  0  0  0
    2.1819   -1.2376   -0.1723 C   0  0  0  0  0  0  0  0  0  0  0  0
    1.4529   -0.2569    1.6875 V   0  0  0  0  0  0  0  0  0  0  0  0
    1.4666    0.2513   -1.6679 V   0  0  0  0  0  0  0  0  0  0  0  0
    4.0104    0.0143    0.0184 H   0  0  0  0  0  0  0  0  0  0  0  0
    2.7436    2.1608    0.3576 H   0  0  0  0  0  0  0  0  0  0  0  0
    2.7332   -2.1713   -0.3181 H   0  0  0  0  0  0  0  0  0  0  0  0
    2.4496   -0.0147    3.5775 C   0  0  0  0  0  0  0  0  0  0  0  0
    1.1659    0.6210    3.6339 C   0  0  0  0  0  0  0  0  0  0  0  0
    0.1791   -0.3638    3.4344 C   0  0  0  0  0  0  0  0  0  0  0  0
    0.8287   -1.6023    3.2605 C   0  0  0  0  0  0  0  0  0  0  0  0
    2.2357   -1.4093    3.3304 C   0  0  0  0  0  0  0  0  0  0  0  0
    3.7143    0.6403    3.7389 C   0  0  0  0  0  0  0  0  0  0  0  0
    4.9261    1.2271    3.9259 C   0  0  0  0  0  0  0  0  0  0  0  0
    5.9126    1.7087    4.0467 H   0  0  0  0  0  0  0  0  0  0  0  0
    0.9689    1.6802    3.8092 H   0  0  0  0  0  0  0  0  0  0  0  0
   -0.8916   -0.2008    3.4176 H   0  0  0  0  0  0  0  0  0  0  0  0
    0.3415   -2.5804    3.0896 H   0  0  0  0  0  0  0  0  0  0  0  0
    3.0043   -2.1663    3.2149 H   0  0  0  0  0  0  0  0  0  0  0  0
    2.0690   -0.3584   -3.7823 C   0  0  0  0  0  0  0  0  0  0  0  0
    0.6768   -0.2355   -3.7566 C   0  0  0  0  0  0  0  0  0  0  0  0
    0.3733    1.0752   -3.5546 C   0  0  0  0  0  0  0  0  0  0  0  0
    1.5597    1.7740   -3.4317 C   0  0  0  0  0  0  0  0  0  0  0  0
    2.6028    0.9109   -3.5676 C   0  0  0  0  0  0  0  0  0  0  0  0
    2.6356   -1.2696   -3.9120 H   0  0  0  0  0  0  0  0  0  0  0  0
   -0.0384   -1.0362   -3.9040 H   0  0  0  0  0  0  0  0  0  0  0  0
   -0.6179    1.4947   -3.4923 H   0  0  0  0  0  0  0  0  0  0  0  0
    1.6472    2.8383   -3.2716 H   0  0  0  0  0  0  0  0  0  0  0  0
    3.6536    1.1738   -3.5303 H   0  0  0  0  0  0  0  0  0  0  0  0
    0.1939    2.1718    0.3291 H   0  0  0  0  0  0  0  0  0  0  0  0
    0.1712   -2.1595   -0.3353 H   0  0  0  0  0  0  0  0  0  0  0  0
    5.7430    3.3403   -2.2910 O   0  0  0  0  0  0  0  0  0  0  0  0
    5.2630    4.1717   -2.2910 H   0  0  0  0  0  0  0  0  0  0  0  0
    6.6870    3.5153   -2.2910 H   0  0  0  0  0  0  0  0  0  0  0  0
    7.3011   -0.2153   -3.9343 O   0  0  0  0  0  0  0  0  0  0  0  0
    8.2583   -0.2153   -3.9343 H   0  0  0  0  0  0  0  0  0  0  0  0
    6.9816    0.6870   -3.9343 H   0  0  0  0  0  0  0  0  0  0  0  0
    8.9628    1.9308    1.2765 Cl  0  5  0  0  0  0  0  0  0  0  0  0
  1  2  1  0  0  0  0
  1  3  1  0  0  0  0
  2  6  1  0  0  0  0
  4  1  1  0  0  0  0
  5  7  1  0  0  0  0
  6  5  1  0  0  0  0
  7  3  1  0  0  0  0
  8  2  1  0  0  0  0
  8  1  1  0  0  0  0
  8  6  1  0  0  0  0
  8  5  1  0  0  0  0
  8  7  1  0  0  0  0
  8  3  1  0  0  0  0
  8 13  1  0  0  0  0
  8 14  1  0  0  0  0
  8 15  1  0  0  0  0
  8 16  1  0  0  0  0
  8 17  1  0  0  0  0
  9  2  1  0  0  0  0
  9  1  1  0  0  0  0
  9  6  1  0  0  0  0
  9  5  1  0  0  0  0
  9  7  1  0  0  0  0
  9  3  1  0  0  0  0
  9 25  1  0  0  0  0
  9 26  1  0  0  0  0
  9 27  1  0  0  0  0
  9 28  1  0  0  0  0
  9 29  1  0  0  0  0
 10  5  1  0  0  0  0
 11  6  1  0  0  0  0
 12  7  1  0  0  0  0
 13 14  1  0  0  0  0
 14 21  1  0  0  0  0
 15 14  1  0  0  0  0
 16 15  1  0  0  0  0
 16 17  1  0  0  0  0
 17 13  1  0  0  0  0
 18 13  1  0  0  0  0
 18 19  3  0  0  0  0
 19 20  1  0  0  0  0
 22 15  1  0  0  0  0
 23 16  1  0  0  0  0
 24 17  1  0  0  0  0
 25 26  1  0  0  0  0
 25 30  1  0  0  0  0
 26 27  1  0  0  0  0
 26 31  1  0  0  0  0
 27 28  1  0  0  0  0
 27 32  1  0  0  0  0
 28 29  1  0  0  0  0
 28 33  1  0  0  0  0
 29 25  1  0  0  0  0
 29 34  1  0  0  0  0
 35  2  1  0  0  0  0
 36  3  1  0  0  0  0
 38 37  1  0  0  0  0
 39 37  1  0  0  0  0
 41 40  1  0  0  0  0
 42 40  1  0  0  0  0
M  CHG  1  43  -1
M  END
$$$$
MOL2
 OpenBabel07192200223D

 42 60  0  0  0  0  0  0  0  0999 V2000
    0.0000    0.0000    0.0000 C   0  0  0  0  0  0  0  0  0  0  0  0
    0.7351    1.2442    0.2075 C   0  0  0  0  0  0  0  0  0  0  0  0
    0.7232   -1.2444   -0.1832 C   0  0  0  0  0  0  0  0  0  0  0  0
   -1.0920   -0.0042    0.0084 H   0  0  0  0  0  0  0  0  0  0  0  0
    2.9041   -0.0001    0.0209 C   0  0  0  0  0  0  0  0  0  0  0  0
    2.1877    1.2379    0.2026 C   0  0  0  0  0  0  0  0  0  0  0  0
    2.1819   -1.2376   -0.1723 C   0  0  0  0  0  0  0  0  0  0  0  0
    1.4529   -0.2569    1.6875 V   0  0  0  0  0  0  0  0  0  0  0  0
    1.4666    0.2513   -1.6679 V   0  0  0  0  0  0  0  0  0  0  0  0
    4.0104    0.0143    0.0184 H   0  0  0  0  0  0  0  0  0  0  0  0
    2.7436    2.1608    0.3576 H   0  0  0  0  0  0  0  0  0  0  0  0
    2.7332   -2.1713   -0.3181 H   0  0  0  0  0  0  0  0  0  0  0  0
    2.4496   -0.0147    3.5775 C   0  0  0  0  0  0  0  0  0  0  0  0
    1.1659    0.6210    3.6339 C   0  0  0  0  0  0  0  0  0  0  0  0
    0.1791   -0.3638    3.4344 C   0  0  0  0  0  0  0  0  0  0  0  0
    0.8287   -1.6023    3.2605 C   0  0  0  0  0  0  0  0  0  0  0  0
    2.2357   -1.4093    3.3304 C   0  0  0  0  0  0  0  0  0  0  0  0
    3.7143    0.6403    3.7389 C   0  0  0  0  0  0  0  0  0  0  0  0
    4.9261    1.2271    3.9259 C   0  0  0  0  0  0  0  0  0  0  0  0
    5.9126    1.7087    4.0467 H   0  0  0  0  0  0  0  0  0  0  0  0
    0.9689    1.6802    3.8092 H   0  0  0  0  0  0  0  0  0  0  0  0
   -0.8916   -0.2008    3.4176 H   0  0  0  0  0  0  0  0  0  0  0  0
    0.3415   -2.5804    3.0896 H   0  0  0  0  0  0  0  0  0  0  0  0
    3.0043   -2.1663    3.2149 H   0  0  0  0  0  0  0  0  0  0  0  0
    2.0690   -0.3584   -3.7823 C   0  0  0  0  0  0  0  0  0  0  0  0
    0.6768   -0.2355   -3.7566 C   0  0  0  0  0  0  0  0  0  0  0  0
    0.3733    1.0752   -3.5546 C   0  0  0  0  0  0  0  0  0  0  0  0
    1.5597    1.7740   -3.4317 C   0  0  0  0  0  0  0  0  0  0  0  0
    2.6028    0.9109   -3.5676 C   0  0  0  0  0  0  0  0  0  0  0  0
    2.6356   -1.2696   -3.9120 H   0  0  0  0  0  0  0  0  0  0  0  0
   -0.0384   -1.0362   -3.9040 H   0  0  0  0  0  0  0  0  0  0  0  0
   -0.6179    1.4947   -3.4923 H   0  0  0  0  0  0  0  0  0  0  0  0
    1.6472    2.8383   -3.2716 H   0  0  0  0  0  0  0  0  0  0  0  0
    3.6536    1.1738   -3.5303 H   0  0  0  0  0  0  0  0  0  0  0  0
    0.1939    2.1718    0.3291 H   0  0  0  0  0  0  0  0  0  0  0  0
    0.1712   -2.1595   -0.3353 H   0  0  0  0  0  0  0  0  0  0  0  0
    5.7430    3.3403   -2.2910 O   0  0  0  0  0  0  0  0  0  0  0  0
    5.2630    4.1717   -2.2910 H   0  0  0  0  0  0  0  0  0  0  0  0
    6.6870    3.5153   -2.2910 H   0  0  0  0  0  0  0  0  0  0  0  0
    7.3011   -0.2153   -3.9343 O   0  0  0  0  0  0  0  0  0  0  0  0
    8.2583   -0.2153   -3.9343 H   0  0  0  0  0  0  0  0  0  0  0  0
    6.9816    0.6870   -3.9343 H   0  0  0  0  0  0  0  0  0  0  0  0
  1  2  1  0  0  0  0
  1  3  1  0  0  0  0
  2  6  1  0  0  0  0
  4  1  1  0  0  0  0
  5  7  1  0  0  0  0
  6  5  1  0  0  0  0
  7  3  1  0  0  0  0
  8  2  1  0  0  0  0
  8  1  1  0  0  0  0
  8  6  1  0  0  0  0
  8  5  1  0  0  0  0
  8  7  1  0  0  0  0
  8  3  1  0  0  0  0
  8 13  1  0  0  0  0
  8 14  1  0  0  0  0
  8 15  1  0  0  0  0
  8 16  1  0  0  0  0
  8 17  1  0  0  0  0
  9  2  1  0  0  0  0
  9  1  1  0  0  0  0
  9  6  1  0  0  0  0
  9  5  1  0  0  0  0
  9  7  1  0  0  0  0
  9  3  1  0  0  0  0
  9 25  1  0  0  0  0
  9 26  1  0  0  0  0
  9 27  1  0  0  0  0
  9 28  1  0  0  0  0
  9 29  1  0  0  0  0
 10  5  1  0  0  0  0
 11  6  1  0  0  0  0
 12  7  1  0  0  0  0
 13 14  1  0  0  0  0
 14 21  1  0  0  0  0
 15 14  1  0  0  0  0
 16 15  1  0  0  0  0
 16 17  1  0  0  0  0
 17 13  1  0  0  0  0
 18 13  1  0  0  0  0
 18 19  3  0  0  0  0
 19 20  1  0  0  0  0
 22 15  1  0  0  0  0
 23 16  1  0  0  0  0
 24 17  1  0  0  0  0
 25 26  1  0  0  0  0
 25 30  1  0  0  0  0
 26 27  1  0  0  0  0
 26 31  1  0  0  0  0
 27 28  1  0  0  0  0
 27 32  1  0  0  0  0
 28 29  1  0  0  0  0
 28 33  1  0  0  0  0
 29 25  1  0  0  0  0
 29 34  1  0  0  0  0
 35  2  1  0  0  0  0
 36  3  1  0  0  0  0
 38 37  1  0  0  0  0
 39 37  1  0  0  0  0
 41 40  1  0  0  0  0
 42 40  1  0  0  0  0
M  END
$$$$
MOL3
 OpenBabel07192200223D

 41 59  0  0  0  0  0  0  0  0999 V2000
    0.0000    0.0000    0.0000 C   0  0  0  0  0  0  0  0  0  0  0  0
    0.7351    1.2442    0.2075 C   0  0  0  0  0  0  0  0  0  0  0  0
    0.7232   -1.2444   -0.1832 C   0  0  0  0  0  0  0  0  0  0  0  0
   -1.0920   -0.0042    0.0084 H   0  0  0  0  0  0  0  0  0  0  0  0
    2.9041   -0.0001    0.0209 C   0  0  0  0  0  0  0  0  0  0  0  0
    2.1877    1.2379    0.2026 C   0  0  0  0  0  0  0  0  0  0  0  0
    2.1819   -1.2376   -0.1723 C   0  0  0  0  0  0  0  0  0  0  0  0
    1.4529   -0.2569    1.6875 V   0  0  0  0  0  0  0  0  0  0  0  0
    1.4666    0.2513   -1.6679 V   0  0  0  0  0  0  0  0  0  0  0  0
    4.0104    0.0143    0.0184 H   0  0  0  0  0  0  0  0  0  0  0  0
    2.7436    2.1608    0.3576 H   0  0  0  0  0  0  0  0  0  0  0  0
    2.7332   -2.1713   -0.3181 H   0  0  0  0  0  0  0  0  0  0  0  0
    2.4496   -0.0147    3.5775 C   0  0  0  0  0  0  0  0  0  0  0  0
    1.1659    0.6210    3.6339 C   0  0  0  0  0  0  0  0  0  0  0  0
    0.1791   -0.3638    3.4344 C   0  0  0  0  0  0  0  0  0  0  0  0
    0.8287   -1.6023    3.2605 C   0  0  0  0  0  0  0  0  0  0  0  0
    2.2357   -1.4093    3.3304 C   0  0  0  0  0  0  0  0  0  0  0  0
    3.7143    0.6403    3.7389 C   0  0  0  0  0  0  0  0  0  0  0  0
    4.9261    1.2271    3.9259 C   0  0  0  0  0  0  0  0  0  0  0  0
    5.9126    1.7087    4.0467 H   0  0  0  0  0  0  0  0  0  0  0  0
    0.9689    1.6802    3.8092 H   0  0  0  0  0  0  0  0  0  0  0  0
   -0.8916   -0.2008    3.4176 H   0  0  0  0  0  0  0  0  0  0  0  0
    0.3415   -2.5804    3.0896 H   0  0  0  0  0  0  0  0  0  0  0  0
    3.0043   -2.1663    3.2149 H   0  0  0  0  0  0  0  0  0  0  0  0
    2.0690   -0.3584   -3.7823 C   0  0  0  0  0  0  0  0  0  0  0  0
    0.6768   -0.2355   -3.7566 C   0  0  0  0  0  0  0  0  0  0  0  0
    0.3733    1.0752   -3.5546 C   0  0  0  0  0  0  0  0  0  0  0  0
    1.5597    1.7740   -3.4317 C   0  0  0  0  0  0  0  0  0  0  0  0
    2.6028    0.9109   -3.5676 C   0  0  0  0  0  0  0  0  0  0  0  0
    2.6356   -1.2696   -3.9120 H   0  0  0  0  0  0  0  0  0  0  0  0
   -0.0384   -1.0362   -3.9040 H   0  0  0  0  0  0  0  0  0  0  0  0
   -0.6179    1.4947   -3.4923 H   0  0  0  0  0  0  0  0  0  0  0  0
    1.6472    2.8383   -3.2716 H   0  0  0  0  0  0  0  0  0  0  0  0
    3.6536    1.1738   -3.5303 H   0  0  0  0  0  0  0  0  0  0  0  0
    0.1939    2.1718    0.3291 H   0  0  0  0  0  0  0  0  0  0  0  0
    0.1712   -2.1595   -0.3353 H   0  0  0  0  0  0  0  0  0  0  0  0
    5.7430    3.3403   -2.2910 O   0  0  0  0  0  0  0  0  0  0  0  0
    5.2630    4.1717   -2.2910 H   0  0  0  0  0  0  0  0  0  0  0  0
    6.6870    3.5153   -2.2910 H   0  0  0  0  0  0  0  0  0  0  0  0
    7.3011   -0.2153   -3.9343 O   0  0  0  0  0  0  0  0  0  0  0  0
    8.2583   -0.2153   -3.9343 H   0  0  0  0  0  0  0  0  0  0  0  0
  1  2  1  0  0  0  0
  1  3  1  0  0  0  0
  2  6  1  0  0  0  0
  4  1  1  0  0  0  0
  5  7  1  0  0  0  0
  6  5  1  0  0  0  0
  7  3  1  0  0  0  0
  8  2  1  0  0  0  0
  8  1  1  0  0  0  0
  8  6  1  0  0  0  0
  8  5  1  0  0  0  0
  8  7  1  0  0  0  0
  8  3  1  0  0  0  0
  8 13  1  0  0  0  0
  8 14  1  0  0  0  0
  8 15  1  0  0  0  0
  8 16  1  0  0  0  0
  8 17  1  0  0  0  0
  9  2  1  0  0  0  0
  9  1  1  0  0  0  0
  9  6  1  0  0  0  0
  9  5  1  0  0  0  0
  9  7  1  0  0  0  0
  9  3  1  0  0  0  0
  9 25  1  0  0  0  0
  9 26  1  0  0  0  0
  9 27  1  0  0  0  0
  9 28  1  0  0  0  0
  9 29  1  0  0  0  0
 10  5  1  0  0  0  0
 11  6  1  0  0  0  0
 12  7  1  0  0  0  0
 13 14  1  0  0  0  0
 14 21  1  0  0  0  0
 15 14  1  0  0  0  0
 16 15  1  0  0  0  0
 16 17  1  0  0  0  0
 17 13  1  0  0  0  0
 18 13  1  0  0  0  0
 18 19  3  0  0  0  0
 19 20  1  0  0  0  0
 22 15  1  0  0  0  0
 23 16  1  0  0  0  0
 24 17  1  0  0  0  0
 25 26  1  0  0  0  0
 25 30  1  0  0  0  0
 26 27  1  0  0  0  0
 26 31  1  0  0  0  0
 27 28  1  0  0  0  0
 27 32  1  0  0  0  0
 28 29  1  0  0  0  0
 28 33  1  0  0  0  0
 29 25  1  0  0  0  0
 29 34  1  0  0  0  0
 35  2  1  0  0  0  0
 36  3  1  0  0  0  0
 38 37  1  0  0  0  0
 39 37  1  0  0  0  0
 41 40  1  0  0  0  0
M  END
$$$$
MOL4
 OpenBabel07192200223D

 36 56  0  0  0  0  0  0  0  0999 V2000
    0.0000    0.0000    0.0000 C   0  0  0  0  0  0  0  0  0  0  0  0
    0.7351    1.2442    0.2075 C   0  0  0  0  0  0  0  0  0  0  0  0
    0.7232   -1.2444   -0.1832 C   0  0  0  0  0  0  0  0  0  0  0  0
   -1.0920   -0.0042    0.0084 H   0  0  0  0  0  0  0  0  0  0  0  0
    2.9041   -0.0001    0.0209 C   0  0  0  0  0  0  0  0  0  0  0  0
    2.1877    1.2379    0.2026 C   0  0  0  0  0  0  0  0  0  0  0  0
    2.1819   -1.2376   -0.1723 C   0  0  0  0  0  0  0  0  0  0  0  0
    1.4529   -0.2569    1.6875 V   0  0  0  0  0  0  0  0  0  0  0  0
    1.4666    0.2513   -1.6679 V   0  0  0  0  0  0  0  0  0  0  0  0
    4.0104    0.0143    0.0184 H   0  0  0  0  0  0  0  0  0  0  0  0
    2.7436    2.1608    0.3576 H   0  0  0  0  0  0  0  0  0  0  0  0
    2.7332   -2.1713   -0.3181 H   0  0  0  0  0  0  0  0  0  0  0  0
    2.4496   -0.0147    3.5775 C   0  0  0  0  0  0  0  0  0  0  0  0
    1.1659    0.6210    3.6339 C   0  0  0  0  0  0  0  0  0  0  0  0
    0.1791   -0.3638    3.4344 C   0  0  0  0  0  0  0  0  0  0  0  0
    0.8287   -1.6023    3.2605 C   0  0  0  0  0  0  0  0  0  0  0  0
    2.2357   -1.4093    3.3304 C   0  0  0  0  0  0  0  0  0  0  0  0
    3.7143    0.6403    3.7389 C   0  0  0  0  0  0  0  0  0  0  0  0
    4.9261    1.2271    3.9259 C   0  0  0  0  0  0  0  0  0  0  0  0
    5.9126    1.7087    4.0467 H   0  0  0  0  0  0  0  0  0  0  0  0
    0.9689    1.6802    3.8092 H   0  0  0  0  0  0  0  0  0  0  0  0
   -0.8916   -0.2008    3.4176 H   0  0  0  0  0  0  0  0  0  0  0  0
    0.3415   -2.5804    3.0896 H   0  0  0  0  0  0  0  0  0  0  0  0
    3.0043   -2.1663    3.2149 H   0  0  0  0  0  0  0  0  0  0  0  0
    2.0690   -0.3584   -3.7823 C   0  0  0  0  0  0  0  0  0  0  0  0
    0.6768   -0.2355   -3.7566 C   0  0  0  0  0  0  0  0  0  0  0  0
    0.3733    1.0752   -3.5546 C   0  0  0  0  0  0  0  0  0  0  0  0
    1.5597    1.7740   -3.4317 C   0  0  0  0  0  0  0  0  0  0  0  0
    2.6028    0.9109   -3.5676 C   0  0  0  0  0  0  0  0  0  0  0  0
    2.6356   -1.2696   -3.9120 H   0  0  0  0  0  0  0  0  0  0  0  0
   -0.0384   -1.0362   -3.9040 H   0  0  0  0  0  0  0  0  0  0  0  0
   -0.6179    1.4947   -3.4923 H   0  0  0  0  0  0  0  0  0  0  0  0
    1.6472    2.8383   -3.2716 H   0  0  0  0  0  0  0  0  0  0  0  0
    3.6536    1.1738   -3.5303 H   0  0  0  0  0  0  0  0  0  0  0  0
    0.1939    2.1718    0.3291 H   0  0  0  0  0  0  0  0  0  0  0  0
    0.1712   -2.1595   -0.3353 H   0  0  0  0  0  0  0  0  0  0  0  0
  1  2  1  0  0  0  0
  1  3  1  0  0  0  0
  2  6  1  0  0  0  0
  4  1  1  0  0  0  0
  5  7  1  0  0  0  0
  6  5  1  0  0  0  0
  7  3  1  0  0  0  0
  8  2  1  0  0  0  0
  8  1  1  0  0  0  0
  8  6  1  0  0  0  0
  8  5  1  0  0  0  0
  8  7  1  0  0  0  0
  8  3  1  0  0  0  0
  8 13  1  0  0  0  0
  8 14  1  0  0  0  0
  8 15  1  0  0  0  0
  8 16  1  0  0  0  0
  8 17  1  0  0  0  0
  9  2  1  0  0  0  0
  9  1  1  0  0  0  0
  9  6  1  0  0  0  0
  9  5  1  0  0  0  0
  9  7  1  0  0  0  0
  9  3  1  0  0  0  0
  9 25  1  0  0  0  0
  9 26  1  0  0  0  0
  9 27  1  0  0  0  0
  9 28  1  0  0  0  0
  9 29  1  0  0  0  0
 10  5  1  0  0  0  0
 11  6  1  0  0  0  0
 12  7  1  0  0  0  0
 13 14  1  0  0  0  0
 14 21  1  0  0  0  0
 15 14  1  0  0  0  0
 16 15  1  0  0  0  0
 16 17  1  0  0  0  0
 17 13  1  0  0  0  0
 18 13  1  0  0  0  0
 18 19  3  0  0  0  0
 19 20  1  0  0  0  0
 22 15  1  0  0  0  0
 23 16  1  0  0  0  0
 24 17  1  0  0  0  0
 25 26  1  0  0  0  0
 25 30  1  0  0  0  0
 26 27  1  0  0  0  0
 26 31  1  0  0  0  0
 27 28  1  0  0  0  0
 27 32  1  0  0  0  0
 28 29  1  0  0  0  0
 28 33  1  0  0  0  0
 29 25  1  0  0  0  0
 29 34  1  0  0  0  0
 35  2  1  0  0  0  0
 36  3  1  0  0  0  0
M  END
$$$$
