M0001
 OpenBabel11232110543D

 71 88  0  0  1  0  0  0  0  0999 V2000
   -1.4771   -0.0000   -1.2994 C   0  0  1  0  0  0  0  0  0  0  0  0
   -1.4625   -0.0000   -2.2484 H   0  0  0  0  0  0  0  0  0  0  0  0
   -0.0000   -0.0000   -0.7793 C   0  0  2  0  0  0  0  0  0  0  0  0
    0.0000    0.0000    0.7793 C   0  0  2  0  0  0  0  0  0  0  0  0
   -0.7385   -1.2792    1.2994 C   0  0  2  0  0  0  0  0  0  0  0  0
   -2.1949   -1.2595    0.7708 C   0  0  2  0  0  0  0  0  0  0  0  0
   -2.1882   -1.2711   -0.7708 C   0  0  2  0  0  0  0  0  0  0  0  0
   -0.7266   -1.2586    2.8514 C   0  0  2  0  0  0  0  0  0  0  0  0
   -3.2263   -1.2868   -1.1300 H   0  0  0  0  0  0  0  0  0  0  0  0
   -1.4632    0.0000    3.3551 C   0  0  1  0  0  0  0  0  0  0  0  0
   -1.4834    0.0000    4.4521 H   0  0  0  0  0  0  0  0  0  0  0  0
   -2.9159    0.0000    1.2960 C   0  0  2  0  0  0  0  0  0  0  0  0
   -3.9564   -0.0000    0.9480 H   0  0  0  0  0  0  0  0  0  0  0  0
   -0.7385    1.2792    1.2994 C   0  0  1  0  0  0  0  0  0  0  0  0
   -2.1882    1.2711   -0.7708 C   0  0  1  0  0  0  0  0  0  0  0  0
   -3.2263    1.2868   -1.1300 H   0  0  0  0  0  0  0  0  0  0  0  0
   -0.7266    1.2586    2.8514 C   0  0  2  0  0  0  0  0  0  0  0  0
   -1.2416    2.1504    3.2342 H   0  0  0  0  0  0  0  0  0  0  0  0
    0.0067    2.5306    0.7708 C   0  0  2  0  0  0  0  0  0  0  0  0
   -0.4988    3.4375    1.1300 H   0  0  0  0  0  0  0  0  0  0  0  0
   -2.1949    1.2595    0.7708 C   0  0  1  0  0  0  0  0  0  0  0  0
   -2.7276    2.1507    1.1300 H   0  0  0  0  0  0  0  0  0  0  0  0
   -2.9046    0.0000    2.8302 C   0  0  0  0  0  0  0  0  0  0  0  0
   -3.4393    0.8804    3.2073 H   0  0  0  0  0  0  0  0  0  0  0  0
   -1.4579    2.5252   -1.2960 C   0  0  0  0  0  0  0  0  0  0  0  0
   -1.9782    3.4264   -0.9480 H   0  0  0  0  0  0  0  0  0  0  0  0
   -0.0067    2.5306   -0.7708 C   0  0  2  0  0  0  0  0  0  0  0  0
    0.4988    3.4375   -1.1300 H   0  0  0  0  0  0  0  0  0  0  0  0
    0.7385    1.2792   -1.2994 C   0  0  1  0  0  0  0  0  0  0  0  0
    0.7312    1.2666   -2.2484 H   0  0  0  0  0  0  0  0  0  0  0  0
   -1.4544    2.5192   -2.2451 H   0  0  0  0  0  0  0  0  0  0  0  0
    0.7316   -1.2672    3.3551 C   0  0  2  0  0  0  0  0  0  0  0  0
    0.7417   -1.2846    4.4521 H   0  0  0  0  0  0  0  0  0  0  0  0
    0.7316    1.2672    3.3551 C   0  0  1  0  0  0  0  0  0  0  0  0
    0.7417    1.2846    4.4521 H   0  0  0  0  0  0  0  0  0  0  0  0
    1.4771    0.0000    1.2994 C   0  0  1  0  0  0  0  0  0  0  0  0
    1.4579    2.5252    1.2960 C   0  0  2  0  0  0  0  0  0  0  0  0
    1.9782    3.4264    0.9480 H   0  0  0  0  0  0  0  0  0  0  0  0
    2.1949    1.2595   -0.7708 C   0  0  1  0  0  0  0  0  0  0  0  0
    2.7276    2.1507   -1.1300 H   0  0  0  0  0  0  0  0  0  0  0  0
    2.1882    1.2711    0.7708 C   0  0  2  0  0  0  0  0  0  0  0  0
    3.2263    1.2868    1.1300 H   0  0  0  0  0  0  0  0  0  0  0  0
    1.4533    0.0000    2.8514 C   0  0  2  0  0  0  0  0  0  0  0  0
    2.4831    0.0000    3.2342 H   0  0  0  0  0  0  0  0  0  0  0  0
    1.4523    2.5155    2.8302 C   0  0  0  0  0  0  0  0  0  0  0  0
    2.4821    2.5383    3.2073 H   0  0  0  0  0  0  0  0  0  0  0  0
    0.9572    3.4187    3.2073 H   0  0  0  0  0  0  0  0  0  0  0  0
    2.1882   -1.2711    0.7708 C   0  0  2  0  0  0  0  0  0  0  0  0
    3.2263   -1.2868    1.1300 H   0  0  0  0  0  0  0  0  0  0  0  0
    0.0067   -2.5306    0.7708 C   0  0  1  0  0  0  0  0  0  0  0  0
   -1.4579   -2.5252   -1.2960 C   0  0  0  0  0  0  0  0  0  0  0  0
    0.7385   -1.2792   -1.2994 C   0  0  1  0  0  0  0  0  0  0  0  0
    2.9159   -0.0000   -1.2960 C   0  0  0  0  0  0  0  0  0  0  0  0
    3.9564    0.0000   -0.9480 H   0  0  0  0  0  0  0  0  0  0  0  0
    2.1949   -1.2595   -0.7708 C   0  0  1  0  0  0  0  0  0  0  0  0
    2.7276   -2.1507   -1.1300 H   0  0  0  0  0  0  0  0  0  0  0  0
   -0.0067   -2.5306   -0.7708 C   0  0  1  0  0  0  0  0  0  0  0  0
    0.4988   -3.4375   -1.1300 H   0  0  0  0  0  0  0  0  0  0  0  0
    0.7312   -1.2666   -2.2484 H   0  0  0  0  0  0  0  0  0  0  0  0
    1.4579   -2.5252    1.2960 C   0  0  2  0  0  0  0  0  0  0  0  0
    1.9782   -3.4264    0.9480 H   0  0  0  0  0  0  0  0  0  0  0  0
   -1.4544   -2.5192   -2.2451 H   0  0  0  0  0  0  0  0  0  0  0  0
    1.4523   -2.5155    2.8302 C   0  0  0  0  0  0  0  0  0  0  0  0
    2.4821   -2.5383    3.2073 H   0  0  0  0  0  0  0  0  0  0  0  0
    2.9089   -0.0000   -2.2451 H   0  0  0  0  0  0  0  0  0  0  0  0
   -0.4988   -3.4375    1.1300 H   0  0  0  0  0  0  0  0  0  0  0  0
    0.9572   -3.4187    3.2073 H   0  0  0  0  0  0  0  0  0  0  0  0
   -1.9782   -3.4264   -0.9480 H   0  0  0  0  0  0  0  0  0  0  0  0
   -1.2416   -2.1504    3.2342 H   0  0  0  0  0  0  0  0  0  0  0  0
   -2.7276   -2.1507    1.1300 H   0  0  0  0  0  0  0  0  0  0  0  0
   -3.4393   -0.8804    3.2073 H   0  0  0  0  0  0  0  0  0  0  0  0
  1  2  1  6  0  0  0
  1  3  1  0  0  0  0
  1 15  1  0  0  0  0
  3  4  1  0  0  0  0
  3 29  1  0  0  0  0
  3 52  1  0  0  0  0
  4  5  1  0  0  0  0
  4 14  1  0  0  0  0
  4 36  1  0  0  0  0
  5  6  1  0  0  0  0
  5 50  1  0  0  0  0
  6  7  1  0  0  0  0
  6 12  1  0  0  0  0
  6 70  1  0  0  0  0
  7  1  1  0  0  0  0
  7  9  1  0  0  0  0
  7 51  1  0  0  0  0
  8  5  1  0  0  0  0
  8 10  1  0  0  0  0
  8 32  1  0  0  0  0
  8 69  1  0  0  0  0
 10 11  1  0  0  0  0
 10 23  1  0  0  0  0
 12 13  1  0  0  0  0
 12 23  1  0  0  0  0
 14 17  1  0  0  0  0
 14 21  1  0  0  0  0
 14 19  1  0  0  0  0
 15 16  1  0  0  0  0
 15 25  1  0  0  0  0
 15 21  1  0  0  0  0
 17 18  1  0  0  0  0
 17 10  1  0  0  0  0
 17 34  1  0  0  0  0
 19 20  1  0  0  0  0
 19 27  1  0  0  0  0
 19 37  1  0  0  0  0
 21 22  1  0  0  0  0
 21 12  1  0  0  0  0
 23 24  1  0  0  0  0
 23 71  1  0  0  0  0
 25 26  1  0  0  0  0
 25 31  1  0  0  0  0
 27 28  1  0  0  0  0
 27 25  1  0  0  0  0
 29 27  1  0  0  0  0
 29 30  1  0  0  0  0
 29 39  1  0  0  0  0
 32 33  1  0  0  0  0
 34 35  1  0  0  0  0
 34 45  1  0  0  0  0
 34 43  1  0  0  0  0
 36 43  1  0  0  0  0
 36 41  1  0  0  0  0
 36 48  1  0  0  0  0
 37 38  1  0  0  0  0
 37 41  1  0  0  0  0
 37 45  1  0  0  0  0
 39 40  1  0  0  0  0
 39 41  1  0  0  0  0
 39 53  1  0  0  0  0
 41 42  1  0  0  0  0
 43 44  1  0  0  0  0
 43 32  1  0  0  0  0
 45 46  1  0  0  0  0
 45 47  1  0  0  0  0
 48 49  1  0  0  0  0
 48 55  1  0  0  0  0
 48 60  1  0  0  0  0
 50 60  1  0  0  0  0
 50 66  1  0  0  0  0
 51 57  1  0  0  0  0
 51 68  1  0  0  0  0
 52 57  1  0  0  0  0
 52 59  1  0  0  0  0
 53 54  1  0  0  0  0
 53 55  1  0  0  0  0
 55 56  1  0  0  0  0
 55 52  1  0  0  0  0
 57 58  1  0  0  0  0
 57 50  1  0  0  0  0
 60 61  1  0  0  0  0
 60 63  1  0  0  0  0
 62 51  1  0  0  0  0
 63 64  1  0  0  0  0
 63 32  1  0  0  0  0
 63 67  1  0  0  0  0
 65 53  1  0  0  0  0
M  END
$$$$
