
 OpenBabel06222112423D

 21 21  0  0  0  0  0  0  0  0999 V2000
    1.7488    0.0770   -0.0262 C   0  0  0  0  0  0  0  0  0  0  0  0
    0.8937    1.2451    0.4531 C   0  0  0  0  0  0  0  0  0  0  0  0
   -0.3534    1.4958   -0.3870 C   0  0  0  0  0  0  0  0  0  0  0  0
   -1.5626    0.6941    0.0929 C   0  0  0  0  0  0  0  0  0  0  0  0
   -1.4844   -0.8142   -0.1249 C   0  0  0  0  0  0  0  0  0  0  0  0
   -0.2396   -1.5020    0.4351 C   0  0  0  0  0  0  0  0  0  0  0  0
    1.0136   -1.2116   -0.3872 C   0  0  0  0  0  0  0  0  0  0  0  0
    2.4895   -0.1419    0.7529 H   0  0  0  0  0  0  0  0  0  0  0  0
    2.3279    0.3941   -0.9029 H   0  0  0  0  0  0  0  0  0  0  0  0
    1.5208    2.1461    0.4340 H   0  0  0  0  0  0  0  0  0  0  0  0
    0.6195    1.0976    1.5064 H   0  0  0  0  0  0  0  0  0  0  0  0
   -0.1589    1.3100   -1.4494 H   0  0  0  0  0  0  0  0  0  0  0  0
   -0.6119    2.5575   -0.2980 H   0  0  0  0  0  0  0  0  0  0  0  0
   -2.4516    1.0649   -0.4326 H   0  0  0  0  0  0  0  0  0  0  0  0
   -1.7343    0.8962    1.1574 H   0  0  0  0  0  0  0  0  0  0  0  0
   -1.5737   -1.0309   -1.1964 H   0  0  0  0  0  0  0  0  0  0  0  0
   -2.3681   -1.2655    0.3473 H   0  0  0  0  0  0  0  0  0  0  0  0
   -0.4208   -2.5834    0.3939 H   0  0  0  0  0  0  0  0  0  0  0  0
   -0.0917   -1.2536    1.4918 H   0  0  0  0  0  0  0  0  0  0  0  0
    0.7602   -1.1994   -1.4544 H   0  0  0  0  0  0  0  0  0  0  0  0
    1.7190   -2.0430   -0.2614 H   0  0  0  0  0  0  0  0  0  0  0  0
  1  2  1  0  0  0  0
  1  7  1  0  0  0  0
  1  8  1  0  0  0  0
  1  9  1  0  0  0  0
  2  3  1  0  0  0  0
  2 10  1  0  0  0  0
  2 11  1  0  0  0  0
  3  4  1  0  0  0  0
  3 12  1  0  0  0  0
  3 13  1  0  0  0  0
  4  5  1  0  0  0  0
  4 14  1  0  0  0  0
  4 15  1  0  0  0  0
  5  6  1  0  0  0  0
  5 16  1  0  0  0  0
  5 17  1  0  0  0  0
  6  7  1  0  0  0  0
  6 18  1  0  0  0  0
  6 19  1  0  0  0  0
  7 20  1  0  0  0  0
  7 21  1  0  0  0  0
M  END
$$$$
