
  Mrv2013 08202109063D          

 38 40  0  0  0  0            999 V2000
    0.0610   -2.0300    0.5207 C   0  0  2  0  0  0  0  0  0  0  0  0
   -0.3003   -0.8524   -0.4479 C   0  0  2  0  0  0  0  0  0  0  0  0
    0.2605    0.5303   -0.0162 C   0  0  2  0  0  0  0  0  0  0  0  0
    1.7709    0.5220    0.3754 C   0  0  2  0  0  0  0  0  0  0  0  0
    2.6803   -0.4831   -0.3956 C   0  0  1  0  0  0  0  0  0  0  0  0
    2.6644   -1.9438    0.1537 C   0  0  1  0  0  0  0  0  0  0  0  0
    1.3468   -2.7692    0.0366 C   0  0  1  0  0  0  0  0  0  0  0  0
    0.2762   -1.6484    1.5240 H   0  0  0  0  0  0  0  0  0  0  0  0
    0.1213   -1.0527   -1.4397 H   0  0  0  0  0  0  0  0  0  0  0  0
   -0.3183    0.9146    0.8308 H   0  0  0  0  0  0  0  0  0  0  0  0
    0.1203    1.2269   -0.8491 H   0  0  0  0  0  0  0  0  0  0  0  0
    1.8582    0.3200    1.4468 H   0  0  0  0  0  0  0  0  0  0  0  0
    2.1592    1.5334    0.2189 H   0  0  0  0  0  0  0  0  0  0  0  0
    2.4317   -0.4797   -1.4584 H   0  0  0  0  0  0  0  0  0  0  0  0
    3.7094   -0.1223   -0.3143 H   0  0  0  0  0  0  0  0  0  0  0  0
    3.4426   -2.5024   -0.3764 H   0  0  0  0  0  0  0  0  0  0  0  0
    2.9587   -1.9130    1.2056 H   0  0  0  0  0  0  0  0  0  0  0  0
    1.4815   -3.6744    0.6363 H   0  0  0  0  0  0  0  0  0  0  0  0
    1.2144   -3.0865   -1.0012 H   0  0  0  0  0  0  0  0  0  0  0  0
   -1.8332   -0.9191   -0.6645 C   0  0  1  0  0  0  0  0  0  0  0  0
   -1.2587   -2.8575    0.6303 C   0  0  1  0  0  0  0  0  0  0  0  0
   -2.0868   -2.4405   -0.6065 C   0  0  1  0  0  0  0  0  0  0  0  0
   -3.5581   -2.9263   -0.5010 C   0  0  2  0  0  0  0  0  0  0  0  0
   -1.2283   -4.4066    0.7623 C   0  0  1  0  0  0  0  0  0  0  0  0
   -3.6092   -4.4662   -0.2730 C   0  0  1  0  0  0  0  0  0  0  0  0
   -2.6812   -4.9535    0.8795 C   0  0  2  0  0  0  0  0  0  0  0  0
   -2.3722   -0.3940    0.1309 H   0  0  0  0  0  0  0  0  0  0  0  0
   -2.1244   -0.5010   -1.6312 H   0  0  0  0  0  0  0  0  0  0  0  0
   -1.7794   -2.4887    1.5259 H   0  0  0  0  0  0  0  0  0  0  0  0
   -1.6560   -2.8966   -1.5091 H   0  0  0  0  0  0  0  0  0  0  0  0
   -4.0863   -2.6816   -1.4268 H   0  0  0  0  0  0  0  0  0  0  0  0
   -4.0640   -2.4167    0.3228 H   0  0  0  0  0  0  0  0  0  0  0  0
   -0.7411   -4.8547   -0.1082 H   0  0  0  0  0  0  0  0  0  0  0  0
   -0.6641   -4.6926    1.6534 H   0  0  0  0  0  0  0  0  0  0  0  0
   -4.6391   -4.7604   -0.0499 H   0  0  0  0  0  0  0  0  0  0  0  0
   -3.3141   -4.9725   -1.1966 H   0  0  0  0  0  0  0  0  0  0  0  0
   -3.1077   -4.6284    1.8340 H   0  0  0  0  0  0  0  0  0  0  0  0
   -2.6573   -6.0473    0.8852 H   0  0  0  0  0  0  0  0  0  0  0  0
  1  2  1  0  0  0  0
  1  7  1  0  0  0  0
  1  8  1  0  0  0  0
  2  3  1  0  0  0  0
  2  9  1  0  0  0  0
  3  4  1  0  0  0  0
  3 10  1  0  0  0  0
  3 11  1  0  0  0  0
  4  5  1  0  0  0  0
  4 12  1  0  0  0  0
  4 13  1  0  0  0  0
  5  6  1  0  0  0  0
  5 14  1  0  0  0  0
  5 15  1  0  0  0  0
  6  7  1  0  0  0  0
  6 16  1  0  0  0  0
  6 17  1  0  0  0  0
  7 18  1  0  0  0  0
  7 19  1  0  0  0  0
  2 20  1  0  0  0  0
  1 21  1  0  0  0  0
 21 22  1  0  0  0  0
 20 22  1  0  0  0  0
 22 23  1  0  0  0  0
 21 24  1  0  0  0  0
 23 25  1  0  0  0  0
 24 26  1  0  0  0  0
 25 26  1  0  0  0  0
 20 27  1  0  0  0  0
 20 28  1  0  0  0  0
 21 29  1  0  0  0  0
 22 30  1  0  0  0  0
 23 31  1  0  0  0  0
 23 32  1  0  0  0  0
 24 33  1  0  0  0  0
 24 34  1  0  0  0  0
 25 35  1  0  0  0  0
 25 36  1  0  0  0  0
 26 37  1  0  0  0  0
 26 38  1  0  0  0  0
M  END
$$$$
